<?xml version="1.0" encoding="UTF-8"?>

<routes xmlns:xsi="http://www.w3.org/2001/XMLSchema-instance" xsi:noNamespaceSchemaLocation="http://sumo.dlr.de/xsd/routes_file.xsd">
    <trip id="hour_21_162" depart="75600.81" from="375714879" to="-143075780" fromTaz="fringe-X18Y26" toTaz="fringe-X20Y21" departLane="free" departSpeed="max"/>
    <trip id="hour_21_569" depart="75600.90" from="-173454513" to="275056710" fromTaz="grid-X12Y26" toTaz="destination-X4Y30" departLane="free" departSpeed="max"/>
    <trip id="hour_21_130" depart="75601.15" from="11939526419" to="479358807" fromTaz="fringe-X16Y26" toTaz="fringe-X22Y14" departLane="free" departSpeed="max"/>
    <trip id="hour_21_119" depart="75601.83" from="326594940" to="143075780" fromTaz="fringe-X16Y26" toTaz="fringe-X20Y21" departLane="free" departSpeed="max"/>
    <trip id="hour_21_1238" depart="75601.85" from="24821181" to="290538999" fromTaz="origin-X4Y30" toTaz="destination-X19Y25" departLane="free" departSpeed="max"/>
    <trip id="hour_21_139" depart="75602.36" from="237130850" to="24793256" fromTaz="fringe-X16Y26" toTaz="fringe-X23Y16" departLane="free" departSpeed="max"/>
    <trip id="hour_21_920" depart="75602.92" from="11939524862" to="452051334" fromTaz="grid-X9Y2" toTaz="destination-X7Y1" departLane="free" departSpeed="max"/>
    <trip id="hour_21_1318" depart="75603.53" from="452051337" to="-22997467" fromTaz="origin-X7Y1" toTaz="grid-X16Y6" departLane="free" departSpeed="max"/>
    <trip id="hour_21_1194" depart="75603.98" from="24821181" to="290538999" fromTaz="origin-X4Y30" toTaz="destination-X19Y25" departLane="free" departSpeed="max"/>
    <trip id="hour_21_1283" depart="75604.55" from="452051337" to="4414008" fromTaz="origin-X7Y1" toTaz="fringe-X19Y10" departLane="free" departSpeed="max"/>
    <trip id="hour_21_279" depart="75606.14" from="10666718" to="24711107" fromTaz="fringe-X19Y23" toTaz="fringe-X16Y26" departLane="free" departSpeed="max"/>
    <trip id="hour_21_58" depart="75606.36" from="164785142" to="11939538400" fromTaz="fringe-X11Y4" toTaz="grid-X2Y11" departLane="free" departSpeed="max"/>
    <trip id="hour_21_757" depart="75606.74" from="11939539920" to="275056710" fromTaz="grid-X3Y27" toTaz="destination-X4Y30" departLane="free" departSpeed="max"/>
    <trip id="hour_21_591" depart="75606.89" from="-451730194" to="375714879" fromTaz="grid-X14Y5" toTaz="fringe-X18Y26" departLane="free" departSpeed="max"/>
    <trip id="hour_21_465" depart="75607.29" from="-40425140" to="275056710" fromTaz="fringe-X4Y29" toTaz="destination-X4Y30" departLane="free" departSpeed="max"/>
    <trip id="hour_21_45" depart="75607.38" from="87194342" to="452051334" fromTaz="fringe-X11Y4" toTaz="destination-X7Y1" departLane="free" departSpeed="max"/>
    <trip id="hour_21_104" depart="75607.90" from="11939526419" to="5058806" fromTaz="fringe-X16Y26" toTaz="fringe-X18Y9" departLane="free" departSpeed="max"/>
    <trip id="hour_21_1248" depart="75608.07" from="24821181" to="-11939545974" fromTaz="origin-X4Y30" toTaz="grid-X7Y19" departLane="free" departSpeed="max"/>
    <trip id="hour_21_292" depart="75608.55" from="-237582244" to="-185406398" fromTaz="fringe-X1Y12" toTaz="fringe-X1Y22" departLane="free" departSpeed="max"/>
    <trip id="hour_21_469" depart="75608.91" from="-40425140" to="275056710" fromTaz="fringe-X4Y29" toTaz="destination-X4Y30" departLane="free" departSpeed="max"/>
    <trip id="hour_21_367" depart="75611.05" from="479358807" to="290538999" fromTaz="fringe-X22Y14" toTaz="destination-X19Y25" departLane="free" departSpeed="max"/>
    <trip id="hour_21_213" depart="75611.12" from="4414008" to="290538999" fromTaz="fringe-X19Y10" toTaz="destination-X19Y25" departLane="free" departSpeed="max"/>
    <trip id="hour_21_451" depart="75612.98" from="40425140" to="275056710" fromTaz="fringe-X4Y29" toTaz="destination-X4Y30" departLane="free" departSpeed="max"/>
    <trip id="hour_21_127" depart="75613.17" from="24711107" to="12968189#1" fromTaz="fringe-X16Y26" toTaz="fringe-X20Y7" departLane="free" departSpeed="max"/>
    <trip id="hour_21_1117" depart="75614.93" from="24821181" to="290538999" fromTaz="origin-X4Y30" toTaz="destination-X19Y25" departLane="free" departSpeed="max"/>
    <trip id="hour_21_880" depart="75615.27" from="155094215" to="275056710" fromTaz="grid-X8Y3" toTaz="destination-X4Y30" departLane="free" departSpeed="max"/>
    <trip id="hour_21_692" depart="75615.70" from="-11939543535" to="158346347" fromTaz="grid-X21Y12" toTaz="fringe-X19Y10" departLane="free" departSpeed="max"/>
    <trip id="hour_21_716" depart="75616.06" from="11939533085" to="452051334" fromTaz="grid-X22Y13" toTaz="destination-X7Y1" departLane="free" departSpeed="max"/>
    <trip id="hour_21_535" depart="75616.93" from="-1081322051" to="275056710" fromTaz="grid-X10Y24" toTaz="destination-X4Y30" departLane="free" departSpeed="max"/>
    <trip id="hour_21_385" depart="75617.18" from="-479358807" to="307023793" fromTaz="fringe-X22Y14" toTaz="fringe-X23Y15" departLane="free" departSpeed="max"/>
    <trip id="hour_21_93" depart="75617.50" from="11939526419" to="452051334" fromTaz="fringe-X16Y26" toTaz="destination-X7Y1" departLane="free" departSpeed="max"/>
    <trip id="hour_21_148" depart="75617.81" from="11939526419" to="134105523" fromTaz="fringe-X16Y26" toTaz="fringe-X24Y16" departLane="free" departSpeed="max"/>
    <trip id="hour_21_29" depart="75618.13" from="164785142" to="452051334" fromTaz="fringe-X11Y4" toTaz="destination-X7Y1" departLane="free" departSpeed="max"/>
    <trip id="hour_21_191" depart="75618.68" from="287201448" to="8896380" fromTaz="fringe-X18Y9" toTaz="fringe-X23Y15" departLane="free" departSpeed="max"/>
    <trip id="hour_21_632" depart="75618.97" from="11939544392" to="452051334" fromTaz="grid-X18Y7" toTaz="destination-X7Y1" departLane="free" departSpeed="max"/>
    <trip id="hour_21_1268" depart="75619.49" from="452051337" to="164785142" fromTaz="origin-X7Y1" toTaz="fringe-X11Y4" departLane="free" departSpeed="max"/>
    <trip id="hour_21_353" depart="75619.61" from="-121921459" to="158346014" fromTaz="fringe-X22Y11" toTaz="fringe-X19Y10" departLane="free" departSpeed="max"/>
    <trip id="hour_21_943" depart="75619.64" from="-735174822" to="326780462" fromTaz="grid-X9Y24" toTaz="fringe-X19Y23" departLane="free" departSpeed="max"/>
    <trip id="hour_21_625" depart="75620.47" from="451704782" to="8896380" fromTaz="grid-X17Y6" toTaz="fringe-X23Y15" departLane="free" departSpeed="max"/>
    <trip id="hour_21_899" depart="75621.05" from="71890079" to="4414008" fromTaz="grid-X8Y3" toTaz="fringe-X19Y10" departLane="free" departSpeed="max"/>
    <trip id="hour_21_334" depart="75623.05" from="-12968189#1" to="307024526" fromTaz="fringe-X20Y7" toTaz="fringe-X23Y15" departLane="free" departSpeed="max"/>
    <trip id="hour_21_1216" depart="75624.44" from="24821181" to="290538999" fromTaz="origin-X4Y30" toTaz="destination-X19Y25" departLane="free" departSpeed="max"/>
    <trip id="hour_21_790" depart="75624.58" from="11939533708" to="275056710" fromTaz="grid-X4Y28" toTaz="destination-X4Y30" departLane="free" departSpeed="max"/>
    <trip id="hour_21_1241" depart="75626.53" from="24821181" to="290538999" fromTaz="origin-X4Y30" toTaz="destination-X19Y25" departLane="free" departSpeed="max"/>
    <trip id="hour_21_1027" depart="75626.98" from="185260338" to="275056710" fromTaz="origin-X20Y25" toTaz="destination-X4Y30" departLane="free" departSpeed="max"/>
    <trip id="hour_21_1098" depart="75628.78" from="185260338" to="11939549659" fromTaz="origin-X20Y25" toTaz="grid-X20Y7" departLane="free" departSpeed="max"/>
    <trip id="hour_21_495" depart="75631.44" from="5213455" to="275056710" fromTaz="fringe-X7Y28" toTaz="destination-X4Y30" departLane="free" departSpeed="max"/>
    <trip id="hour_21_122" depart="75633.22" from="237130850" to="-143075780" fromTaz="fringe-X16Y26" toTaz="fringe-X20Y21" departLane="free" departSpeed="max"/>
    <trip id="hour_21_1130" depart="75633.34" from="24821181" to="290538999" fromTaz="origin-X4Y30" toTaz="destination-X19Y25" departLane="free" departSpeed="max"/>
    <trip id="hour_21_208" depart="75633.49" from="158347370" to="290538999" fromTaz="fringe-X19Y10" toTaz="destination-X19Y25" departLane="free" departSpeed="max"/>
    <trip id="hour_21_1315" depart="75633.96" from="452051337" to="-134105523" fromTaz="origin-X7Y1" toTaz="fringe-X24Y16" departLane="free" departSpeed="max"/>
    <trip id="hour_21_941" depart="75634.27" from="735174816" to="275056710" fromTaz="grid-X9Y24" toTaz="destination-X4Y30" departLane="free" departSpeed="max"/>
    <trip id="hour_21_23" depart="75635.86" from="164785142" to="452051334" fromTaz="fringe-X11Y4" toTaz="destination-X7Y1" departLane="free" departSpeed="max"/>
    <trip id="hour_21_1087" depart="75636.35" from="185260338" to="452051334" fromTaz="origin-X20Y25" toTaz="destination-X7Y1" departLane="free" departSpeed="max"/>
    <trip id="hour_21_1156" depart="75636.58" from="24821181" to="290538999" fromTaz="origin-X4Y30" toTaz="destination-X19Y25" departLane="free" departSpeed="max"/>
    <trip id="hour_21_228" depart="75636.69" from="158346347" to="452051334" fromTaz="fringe-X19Y10" toTaz="destination-X7Y1" departLane="free" departSpeed="max"/>
    <trip id="hour_21_270" depart="75637.11" from="10666718" to="275056710" fromTaz="fringe-X19Y23" toTaz="destination-X4Y30" departLane="free" departSpeed="max"/>
    <trip id="hour_21_177" depart="75637.12" from="7706026" to="143075780" fromTaz="fringe-X18Y9" toTaz="fringe-X20Y21" departLane="free" departSpeed="max"/>
    <trip id="hour_21_1226" depart="75637.22" from="24821181" to="290538999" fromTaz="origin-X4Y30" toTaz="destination-X19Y25" departLane="free" departSpeed="max"/>
    <trip id="hour_21_1175" depart="75637.71" from="24821181" to="290538999" fromTaz="origin-X4Y30" toTaz="destination-X19Y25" departLane="free" departSpeed="max"/>
    <trip id="hour_21_81" depart="75638.04" from="164785142" to="71736663" fromTaz="fringe-X11Y4" toTaz="grid-X8Y2" departLane="free" departSpeed="max"/>
    <trip id="hour_21_831" depart="75638.12" from="11939534361" to="24711105" fromTaz="grid-X7Y2" toTaz="fringe-X16Y26" departLane="free" departSpeed="max"/>
    <trip id="hour_21_1332" depart="75638.89" from="452051337" to="-158415224" fromTaz="origin-X7Y1" toTaz="grid-X21Y12" departLane="free" departSpeed="max"/>
    <trip id="hour_21_193" depart="75639.30" from="57373256" to="307023793" fromTaz="fringe-X18Y9" toTaz="fringe-X23Y15" departLane="free" departSpeed="max"/>
    <trip id="hour_21_246" depart="75639.43" from="158346347" to="8896380" fromTaz="fringe-X19Y10" toTaz="fringe-X23Y15" departLane="free" departSpeed="max"/>
    <trip id="hour_21_176" depart="75639.70" from="5058806" to="4414008" fromTaz="fringe-X18Y9" toTaz="fringe-X19Y10" departLane="free" departSpeed="max"/>
    <trip id="hour_21_520" depart="75640.26" from="326572945" to="275056710" fromTaz="fringe-X7Y28" toTaz="destination-X4Y30" departLane="free" departSpeed="max"/>
    <trip id="hour_21_774" depart="75640.97" from="11939539921" to="275056710" fromTaz="grid-X3Y28" toTaz="destination-X4Y30" departLane="free" departSpeed="max"/>
    <trip id="hour_21_1074" depart="75641.66" from="185260338" to="275056710" fromTaz="origin-X20Y25" toTaz="destination-X4Y30" departLane="free" departSpeed="max"/>
    <trip id="hour_21_575" depart="75642.34" from="147488497" to="143075780" fromTaz="grid-X12Y4" toTaz="fringe-X20Y21" departLane="free" departSpeed="max"/>
    <trip id="hour_21_525" depart="75642.93" from="-326572945" to="-11939525406" fromTaz="fringe-X7Y28" toTaz="grid-X11Y26" departLane="free" departSpeed="max"/>
    <trip id="hour_21_995" depart="75643.33" from="185260338" to="275056710" fromTaz="origin-X20Y25" toTaz="destination-X4Y30" departLane="free" departSpeed="max"/>
    <trip id="hour_21_1232" depart="75643.74" from="24821181" to="290538999" fromTaz="origin-X4Y30" toTaz="destination-X19Y25" departLane="free" departSpeed="max"/>
    <trip id="hour_21_604" depart="75644.26" from="-28234484" to="11939526419" fromTaz="grid-X15Y5" toTaz="fringe-X16Y26" departLane="free" departSpeed="max"/>
    <trip id="hour_21_408" depart="75644.66" from="-24793256" to="290538999" fromTaz="fringe-X23Y16" toTaz="destination-X19Y25" departLane="free" departSpeed="max"/>
    <trip id="hour_21_1043" depart="75644.80" from="185260338" to="275056710" fromTaz="origin-X20Y25" toTaz="destination-X4Y30" departLane="free" departSpeed="max"/>
    <trip id="hour_21_1204" depart="75644.99" from="24821181" to="290538999" fromTaz="origin-X4Y30" toTaz="destination-X19Y25" departLane="free" departSpeed="max"/>
    <trip id="hour_21_422" depart="75646.25" from="-24793256" to="375714879" fromTaz="fringe-X23Y16" toTaz="fringe-X18Y26" departLane="free" departSpeed="max"/>
    <trip id="hour_21_906" depart="75646.85" from="987011928" to="-12968189#1" fromTaz="grid-X8Y3" toTaz="fringe-X20Y7" departLane="free" departSpeed="max"/>
    <trip id="hour_21_80" depart="75647.01" from="87194347" to="71736664" fromTaz="fringe-X11Y4" toTaz="grid-X8Y2" departLane="free" departSpeed="max"/>
    <trip id="hour_21_652" depart="75647.16" from="-11939523900" to="290538999" fromTaz="grid-X20Y10" toTaz="destination-X19Y25" departLane="free" departSpeed="max"/>
    <trip id="hour_21_651" depart="75647.95" from="-11939539977" to="275056710" fromTaz="grid-X1Y23" toTaz="destination-X4Y30" departLane="free" departSpeed="max"/>
    <trip id="hour_21_505" depart="75648.84" from="5213455" to="275056710" fromTaz="fringe-X7Y28" toTaz="destination-X4Y30" departLane="free" departSpeed="max"/>
    <trip id="hour_21_141" depart="75650.60" from="24711105" to="24793256" fromTaz="fringe-X16Y26" toTaz="fringe-X23Y16" departLane="free" departSpeed="max"/>
    <trip id="hour_21_808" depart="75650.79" from="-26619947" to="275056710" fromTaz="grid-X5Y27" toTaz="destination-X4Y30" departLane="free" departSpeed="max"/>
    <trip id="hour_21_539" depart="75651.19" from="-11939532269" to="275056710" fromTaz="grid-X10Y25" toTaz="destination-X4Y30" departLane="free" departSpeed="max"/>
    <trip id="hour_21_447" depart="75651.44" from="40425140" to="275056710" fromTaz="fringe-X4Y29" toTaz="destination-X4Y30" departLane="free" departSpeed="max"/>
    <trip id="hour_21_1214" depart="75651.58" from="24821181" to="290538999" fromTaz="origin-X4Y30" toTaz="destination-X19Y25" departLane="free" departSpeed="max"/>
    <trip id="hour_21_796" depart="75651.97" from="1160234946" to="275056710" fromTaz="grid-X4Y28" toTaz="destination-X4Y30" departLane="free" departSpeed="max"/>
    <trip id="hour_21_564" depart="75652.35" from="11939527793" to="307024526" fromTaz="grid-X11Y4" toTaz="fringe-X23Y15" departLane="free" departSpeed="max"/>
    <trip id="hour_21_1267" depart="75652.37" from="452051337" to="290538999" fromTaz="origin-X7Y1" toTaz="destination-X19Y25" departLane="free" departSpeed="max"/>
    <trip id="hour_21_1109" depart="75652.49" from="24821181" to="290538999" fromTaz="origin-X4Y30" toTaz="destination-X19Y25" departLane="free" departSpeed="max"/>
    <trip id="hour_21_1157" depart="75652.75" from="24821181" to="290538999" fromTaz="origin-X4Y30" toTaz="destination-X19Y25" departLane="free" departSpeed="max"/>
    <trip id="hour_21_1111" depart="75652.77" from="24821181" to="290538999" fromTaz="origin-X4Y30" toTaz="destination-X19Y25" departLane="free" departSpeed="max"/>
    <trip id="hour_21_158" depart="75653.48" from="-375714879" to="290538999" fromTaz="fringe-X18Y26" toTaz="destination-X19Y25" departLane="free" departSpeed="max"/>
    <trip id="hour_21_511" depart="75653.69" from="929240359" to="275056710" fromTaz="fringe-X7Y28" toTaz="destination-X4Y30" departLane="free" departSpeed="max"/>
    <trip id="hour_21_470" depart="75654.47" from="40425140" to="275056710" fromTaz="fringe-X4Y29" toTaz="destination-X4Y30" departLane="free" departSpeed="max"/>
    <trip id="hour_21_536" depart="75656.51" from="11939537277" to="275056710" fromTaz="grid-X10Y24" toTaz="destination-X4Y30" departLane="free" departSpeed="max"/>
    <trip id="hour_21_1086" depart="75657.42" from="185260338" to="452051334" fromTaz="origin-X20Y25" toTaz="destination-X7Y1" departLane="free" departSpeed="max"/>
    <trip id="hour_21_1058" depart="75657.47" from="185260338" to="275056710" fromTaz="origin-X20Y25" toTaz="destination-X4Y30" departLane="free" departSpeed="max"/>
    <trip id="hour_21_1135" depart="75657.52" from="24821181" to="290538999" fromTaz="origin-X4Y30" toTaz="destination-X19Y25" departLane="free" departSpeed="max"/>
    <trip id="hour_21_49" depart="75657.85" from="87194342" to="4414008" fromTaz="fringe-X11Y4" toTaz="fringe-X19Y10" departLane="free" departSpeed="max"/>
    <trip id="hour_21_678" depart="75658.29" from="-11939539637" to="452051334" fromTaz="grid-X21Y11" toTaz="destination-X7Y1" departLane="free" departSpeed="max"/>
    <trip id="hour_21_823" depart="75659.00" from="-734247285" to="958174516" fromTaz="grid-X5Y28" toTaz="fringe-X1Y23" departLane="free" departSpeed="max"/>
    <trip id="hour_21_1257" depart="75659.43" from="452051337" to="290538999" fromTaz="origin-X7Y1" toTaz="destination-X19Y25" departLane="free" departSpeed="max"/>
    <trip id="hour_21_1218" depart="75659.85" from="24821181" to="290538999" fromTaz="origin-X4Y30" toTaz="destination-X19Y25" departLane="free" departSpeed="max"/>
    <trip id="hour_21_993" depart="75659.86" from="185260338" to="275056710" fromTaz="origin-X20Y25" toTaz="destination-X4Y30" departLane="free" departSpeed="max"/>
    <trip id="hour_21_794" depart="75660.19" from="315047259" to="275056710" fromTaz="grid-X4Y28" toTaz="destination-X4Y30" departLane="free" departSpeed="max"/>
    <trip id="hour_21_1270" depart="75661.67" from="452051337" to="87194342" fromTaz="origin-X7Y1" toTaz="fringe-X11Y4" departLane="free" departSpeed="max"/>
    <trip id="hour_21_499" depart="75661.86" from="154716118" to="275056710" fromTaz="fringe-X7Y28" toTaz="destination-X4Y30" departLane="free" departSpeed="max"/>
    <trip id="hour_21_1159" depart="75662.09" from="24821181" to="290538999" fromTaz="origin-X4Y30" toTaz="destination-X19Y25" departLane="free" departSpeed="max"/>
    <trip id="hour_21_909" depart="75662.37" from="71890080" to="-121921459" fromTaz="grid-X8Y3" toTaz="fringe-X22Y11" departLane="free" departSpeed="max"/>
    <trip id="hour_21_793" depart="75662.61" from="-11939527117" to="275056710" fromTaz="grid-X4Y28" toTaz="destination-X4Y30" departLane="free" departSpeed="max"/>
    <trip id="hour_21_965" depart="75662.93" from="185260338" to="275056710" fromTaz="origin-X20Y25" toTaz="destination-X4Y30" departLane="free" departSpeed="max"/>
    <trip id="hour_21_826" depart="75663.94" from="-11939537240" to="452051334" fromTaz="grid-X5Y9" toTaz="destination-X7Y1" departLane="free" departSpeed="max"/>
    <trip id="hour_21_686" depart="75665.63" from="-11939543535" to="452051334" fromTaz="grid-X21Y12" toTaz="destination-X7Y1" departLane="free" departSpeed="max"/>
    <trip id="hour_21_377" depart="75665.63" from="-479358807" to="-143075780" fromTaz="fringe-X22Y14" toTaz="fringe-X20Y21" departLane="free" departSpeed="max"/>
    <trip id="hour_21_1331" depart="75666.73" from="452051337" to="-122719360" fromTaz="origin-X7Y1" toTaz="grid-X21Y11" departLane="free" departSpeed="max"/>
    <trip id="hour_21_1034" depart="75667.57" from="185260338" to="275056710" fromTaz="origin-X20Y25" toTaz="destination-X4Y30" departLane="free" departSpeed="max"/>
    <trip id="hour_21_299" depart="75670.57" from="-237582244" to="929258351" fromTaz="fringe-X1Y12" toTaz="grid-X6Y21" departLane="free" departSpeed="max"/>
    <trip id="hour_21_516" depart="75670.72" from="929240359" to="275056710" fromTaz="fringe-X7Y28" toTaz="destination-X4Y30" departLane="free" departSpeed="max"/>
    <trip id="hour_21_864" depart="75672.84" from="-71736669" to="-10666718" fromTaz="grid-X8Y2" toTaz="fringe-X19Y23" departLane="free" departSpeed="max"/>
    <trip id="hour_21_888" depart="75672.86" from="155094219" to="452051334" fromTaz="grid-X8Y3" toTaz="destination-X7Y1" departLane="free" departSpeed="max"/>
    <trip id="hour_21_1309" depart="75673.22" from="452051337" to="307024526" fromTaz="origin-X7Y1" toTaz="fringe-X23Y15" departLane="free" departSpeed="max"/>
    <trip id="hour_21_189" depart="75673.30" from="57373256" to="307023793" fromTaz="fringe-X18Y9" toTaz="fringe-X23Y15" departLane="free" departSpeed="max"/>
    <trip id="hour_21_861" depart="75673.61" from="-452034559" to="7706026" fromTaz="grid-X8Y2" toTaz="fringe-X18Y9" departLane="free" departSpeed="max"/>
    <trip id="hour_21_506" depart="75673.98" from="154716118" to="275056710" fromTaz="fringe-X7Y28" toTaz="destination-X4Y30" departLane="free" departSpeed="max"/>
    <trip id="hour_21_953" depart="75674.24" from="185260338" to="275056710" fromTaz="origin-X20Y25" toTaz="destination-X4Y30" departLane="free" departSpeed="max"/>
    <trip id="hour_21_742" depart="75675.43" from="674618166" to="275056710" fromTaz="grid-X2Y26" toTaz="destination-X4Y30" departLane="free" departSpeed="max"/>
    <trip id="hour_21_605" depart="75676.05" from="-11939548477" to="-375714879" fromTaz="grid-X15Y5" toTaz="fringe-X18Y26" departLane="free" departSpeed="max"/>
    <trip id="hour_21_463" depart="75676.20" from="40425140" to="275056710" fromTaz="fringe-X4Y29" toTaz="destination-X4Y30" departLane="free" departSpeed="max"/>
    <trip id="hour_21_389" depart="75676.69" from="8896380" to="452051334" fromTaz="fringe-X23Y15" toTaz="destination-X7Y1" departLane="free" departSpeed="max"/>
    <trip id="hour_21_478" depart="75676.76" from="-40425140" to="275056710" fromTaz="fringe-X4Y29" toTaz="destination-X4Y30" departLane="free" departSpeed="max"/>
    <trip id="hour_21_1228" depart="75678.42" from="24821181" to="290538999" fromTaz="origin-X4Y30" toTaz="destination-X19Y25" departLane="free" departSpeed="max"/>
    <trip id="hour_21_832" depart="75679.23" from="71736668" to="375714879" fromTaz="grid-X7Y2" toTaz="fringe-X18Y26" departLane="free" departSpeed="max"/>
    <trip id="hour_21_287" depart="75679.84" from="-10666718" to="375714879" fromTaz="fringe-X19Y23" toTaz="fringe-X18Y26" departLane="free" departSpeed="max"/>
    <trip id="hour_21_1235" depart="75680.52" from="24821181" to="290538999" fromTaz="origin-X4Y30" toTaz="destination-X19Y25" departLane="free" departSpeed="max"/>
    <trip id="hour_21_404" depart="75681.35" from="307024526" to="11939541062" fromTaz="fringe-X23Y15" toTaz="grid-X22Y13" departLane="free" departSpeed="max"/>
    <trip id="hour_21_1017" depart="75681.48" from="185260338" to="275056710" fromTaz="origin-X20Y25" toTaz="destination-X4Y30" departLane="free" departSpeed="max"/>
    <trip id="hour_21_922" depart="75681.77" from="1184381566" to="452051334" fromTaz="grid-X9Y2" toTaz="destination-X7Y1" departLane="free" departSpeed="max"/>
    <trip id="hour_21_326" depart="75681.99" from="-12968189#1" to="452051334" fromTaz="fringe-X20Y7" toTaz="destination-X7Y1" departLane="free" departSpeed="max"/>
    <trip id="hour_21_1310" depart="75682.77" from="452051337" to="307023793" fromTaz="origin-X7Y1" toTaz="fringe-X23Y15" departLane="free" departSpeed="max"/>
    <trip id="hour_21_883" depart="75683.17" from="987011928" to="452051334" fromTaz="grid-X8Y3" toTaz="destination-X7Y1" departLane="free" departSpeed="max"/>
    <trip id="hour_21_1011" depart="75683.20" from="185260338" to="275056710" fromTaz="origin-X20Y25" toTaz="destination-X4Y30" departLane="free" departSpeed="max"/>
    <trip id="hour_21_999" depart="75685.35" from="185260338" to="275056710" fromTaz="origin-X20Y25" toTaz="destination-X4Y30" departLane="free" departSpeed="max"/>
    <trip id="hour_21_629" depart="75685.44" from="451704787" to="4414008" fromTaz="grid-X17Y7" toTaz="fringe-X19Y10" departLane="free" departSpeed="max"/>
    <trip id="hour_21_820" depart="75686.30" from="-734247285" to="275056710" fromTaz="grid-X5Y28" toTaz="destination-X4Y30" departLane="free" departSpeed="max"/>
    <trip id="hour_21_787" depart="75686.97" from="-51850830" to="275056710" fromTaz="grid-X4Y27" toTaz="destination-X4Y30" departLane="free" departSpeed="max"/>
    <trip id="hour_21_458" depart="75688.09" from="-40425140" to="275056710" fromTaz="fringe-X4Y29" toTaz="destination-X4Y30" departLane="free" departSpeed="max"/>
    <trip id="hour_21_829" depart="75689.14" from="-71736663" to="290538999" fromTaz="grid-X7Y2" toTaz="destination-X19Y25" departLane="free" departSpeed="max"/>
    <trip id="hour_21_82" depart="75689.60" from="87194347" to="71890080" fromTaz="fringe-X11Y4" toTaz="grid-X8Y3" departLane="free" departSpeed="max"/>
    <trip id="hour_21_475" depart="75689.81" from="-40425140" to="275056710" fromTaz="fringe-X4Y29" toTaz="destination-X4Y30" departLane="free" departSpeed="max"/>
    <trip id="hour_21_1028" depart="75689.90" from="185260338" to="275056710" fromTaz="origin-X20Y25" toTaz="destination-X4Y30" departLane="free" departSpeed="max"/>
    <trip id="hour_21_1271" depart="75689.97" from="452051337" to="87194347" fromTaz="origin-X7Y1" toTaz="fringe-X11Y4" departLane="free" departSpeed="max"/>
    <trip id="hour_21_567" depart="75690.36" from="-173454513" to="275056710" fromTaz="grid-X12Y26" toTaz="destination-X4Y30" departLane="free" departSpeed="max"/>
    <trip id="hour_21_187" depart="75690.47" from="5058806" to="307024527" fromTaz="fringe-X18Y9" toTaz="fringe-X23Y15" departLane="free" departSpeed="max"/>
    <trip id="hour_21_1321" depart="75691.06" from="452051337" to="-346397315" fromTaz="origin-X7Y1" toTaz="grid-X17Y7" departLane="free" departSpeed="max"/>
    <trip id="hour_21_1049" depart="75691.96" from="185260338" to="275056710" fromTaz="origin-X20Y25" toTaz="destination-X4Y30" departLane="free" departSpeed="max"/>
    <trip id="hour_21_869" depart="75692.59" from="71736662" to="121921459" fromTaz="grid-X8Y2" toTaz="fringe-X22Y11" departLane="free" departSpeed="max"/>
    <trip id="hour_21_715" depart="75692.70" from="530379633" to="307024526" fromTaz="grid-X22Y12" toTaz="fringe-X23Y15" departLane="free" departSpeed="max"/>
    <trip id="hour_21_784" depart="75692.93" from="-11939526725" to="290538999" fromTaz="grid-X4Y26" toTaz="destination-X19Y25" departLane="free" departSpeed="max"/>
    <trip id="hour_21_546" depart="75693.42" from="-11939525165" to="275056710" fromTaz="grid-X11Y25" toTaz="destination-X4Y30" departLane="free" departSpeed="max"/>
    <trip id="hour_21_1287" depart="75693.70" from="452051337" to="-12968189#1" fromTaz="origin-X7Y1" toTaz="fringe-X20Y7" departLane="free" departSpeed="max"/>
    <trip id="hour_21_955" depart="75693.74" from="185260338" to="275056710" fromTaz="origin-X20Y25" toTaz="destination-X4Y30" departLane="free" departSpeed="max"/>
    <trip id="hour_21_262" depart="75695.87" from="-10666718" to="290538999" fromTaz="fringe-X19Y23" toTaz="destination-X19Y25" departLane="free" departSpeed="max"/>
    <trip id="hour_21_339" depart="75696.24" from="121921459" to="290538999" fromTaz="fringe-X22Y11" toTaz="destination-X19Y25" departLane="free" departSpeed="max"/>
    <trip id="hour_21_836" depart="75696.84" from="11939534360" to="158347370" fromTaz="grid-X7Y2" toTaz="fringe-X19Y10" departLane="free" departSpeed="max"/>
    <trip id="hour_21_1259" depart="75697.40" from="452051337" to="290538999" fromTaz="origin-X7Y1" toTaz="destination-X19Y25" departLane="free" departSpeed="max"/>
    <trip id="hour_21_1330" depart="75698.24" from="452051337" to="11939528386" fromTaz="origin-X7Y1" toTaz="grid-X20Y9" departLane="free" departSpeed="max"/>
    <trip id="hour_21_708" depart="75698.52" from="-4493192" to="452051334" fromTaz="grid-X22Y12" toTaz="destination-X7Y1" departLane="free" departSpeed="max"/>
    <trip id="hour_21_680" depart="75698.71" from="-122719360" to="287201448" fromTaz="grid-X21Y11" toTaz="fringe-X18Y9" departLane="free" departSpeed="max"/>
    <trip id="hour_21_1137" depart="75698.86" from="24821181" to="290538999" fromTaz="origin-X4Y30" toTaz="destination-X19Y25" departLane="free" departSpeed="max"/>
    <trip id="hour_21_792" depart="75699.14" from="11939528704#1" to="275056710" fromTaz="grid-X4Y28" toTaz="destination-X4Y30" departLane="free" departSpeed="max"/>
    <trip id="hour_21_471" depart="75699.72" from="40425140" to="275056710" fromTaz="fringe-X4Y29" toTaz="destination-X4Y30" departLane="free" departSpeed="max"/>
    <trip id="hour_21_355" depart="75699.88" from="-121921459" to="12968189#1" fromTaz="fringe-X22Y11" toTaz="fringe-X20Y7" departLane="free" departSpeed="max"/>
    <trip id="hour_21_1042" depart="75701.08" from="185260338" to="275056710" fromTaz="origin-X20Y25" toTaz="destination-X4Y30" departLane="free" departSpeed="max"/>
    <trip id="hour_21_747" depart="75701.97" from="-11939537337" to="275056710" fromTaz="grid-X3Y26" toTaz="destination-X4Y30" departLane="free" departSpeed="max"/>
    <trip id="hour_21_595" depart="75702.58" from="451730182" to="-143075776" fromTaz="grid-X14Y5" toTaz="fringe-X20Y21" departLane="free" departSpeed="max"/>
    <trip id="hour_21_658" depart="75702.85" from="11939545157" to="8896380" fromTaz="grid-X20Y10" toTaz="fringe-X23Y15" departLane="free" departSpeed="max"/>
    <trip id="hour_21_1125" depart="75703.64" from="24821181" to="290538999" fromTaz="origin-X4Y30" toTaz="destination-X19Y25" departLane="free" departSpeed="max"/>
    <trip id="hour_21_1004" depart="75704.56" from="185260338" to="275056710" fromTaz="origin-X20Y25" toTaz="destination-X4Y30" departLane="free" departSpeed="max"/>
    <trip id="hour_21_598" depart="75705.56" from="-11939527804" to="8896380" fromTaz="grid-X14Y5" toTaz="fringe-X23Y15" departLane="free" departSpeed="max"/>
    <trip id="hour_21_289" depart="75706.03" from="326780462" to="375714879" fromTaz="fringe-X19Y23" toTaz="fringe-X18Y26" departLane="free" departSpeed="max"/>