<?xml version="1.0" encoding="UTF-8"?>

<routes xmlns:xsi="http://www.w3.org/2001/XMLSchema-instance" xsi:noNamespaceSchemaLocation="http://sumo.dlr.de/xsd/routes_file.xsd">
    <trip id="hour_18_2530" depart="64800.12" from="24821181" to="531062202" fromTaz="origin-X4Y30" toTaz="grid-X13Y19" departLane="free" departSpeed="max"/>
    <trip id="hour_18_1976" depart="64800.19" from="185260338" to="275056710" fromTaz="origin-X20Y25" toTaz="destination-X4Y30" departLane="free" departSpeed="max"/>
    <trip id="hour_18_2483" depart="64800.90" from="24821181" to="290538999" fromTaz="origin-X4Y30" toTaz="destination-X19Y25" departLane="free" departSpeed="max"/>
    <trip id="hour_18_1426" depart="64801.02" from="-11939535752" to="452051334" fromTaz="grid-X23Y14" toTaz="destination-X7Y1" departLane="free" departSpeed="max"/>
    <trip id="hour_18_2259" depart="64801.24" from="24821181" to="290538999" fromTaz="origin-X4Y30" toTaz="destination-X19Y25" departLane="free" departSpeed="max"/>
    <trip id="hour_18_1726" depart="64801.59" from="929258351" to="-654765962" fromTaz="grid-X6Y21" toTaz="fringe-X16Y17" departLane="free" departSpeed="max"/>
    <trip id="hour_18_1305" depart="64801.85" from="67016393" to="275056710" fromTaz="grid-X1Y23" toTaz="destination-X4Y30" departLane="free" departSpeed="max"/>
    <trip id="hour_18_2588" depart="64802.77" from="452051337" to="52045883" fromTaz="origin-X7Y1" toTaz="fringe-X10Y1" departLane="free" departSpeed="max"/>
    <trip id="hour_18_1017" depart="64802.92" from="-11939531321" to="275056710" fromTaz="grid-X10Y24" toTaz="destination-X4Y30" departLane="free" departSpeed="max"/>
    <trip id="hour_18_2313" depart="64803.46" from="24821181" to="290538999" fromTaz="origin-X4Y30" toTaz="destination-X19Y25" departLane="free" departSpeed="max"/>
    <trip id="hour_18_1383" depart="64803.53" from="158414578" to="8896380" fromTaz="grid-X21Y12" toTaz="fringe-X23Y15" departLane="free" departSpeed="max"/>
    <trip id="hour_18_2190" depart="64803.79" from="185260338" to="375714879" fromTaz="origin-X20Y25" toTaz="fringe-X18Y26" departLane="free" departSpeed="max"/>
    <trip id="hour_18_1524" depart="64804.33" from="-1148118307" to="654765962" fromTaz="grid-X3Y26" toTaz="fringe-X16Y17" departLane="free" departSpeed="max"/>
    <trip id="hour_18_1351" depart="64804.55" from="11939539637" to="7706026" fromTaz="grid-X21Y11" toTaz="fringe-X18Y9" departLane="free" departSpeed="max"/>
    <trip id="hour_18_473" depart="64804.77" from="158346014" to="307024527" fromTaz="fringe-X19Y10" toTaz="fringe-X23Y15" departLane="free" departSpeed="max"/>
    <trip id="hour_18_2439" depart="64806.09" from="24821181" to="290538999" fromTaz="origin-X4Y30" toTaz="destination-X19Y25" departLane="free" departSpeed="max"/>
    <trip id="hour_18_280" depart="64806.14" from="375714879" to="7706026" fromTaz="fringe-X18Y26" toTaz="fringe-X18Y9" departLane="free" departSpeed="max"/>
    <trip id="hour_18_491" depart="64807.29" from="10666718" to="290538999" fromTaz="fringe-X19Y23" toTaz="destination-X19Y25" departLane="free" departSpeed="max"/>
    <trip id="hour_18_2449" depart="64807.37" from="24821181" to="290538999" fromTaz="origin-X4Y30" toTaz="destination-X19Y25" departLane="free" departSpeed="max"/>
    <trip id="hour_18_42" depart="64807.38" from="87194342" to="452051334" fromTaz="fringe-X11Y4" toTaz="destination-X7Y1" departLane="free" departSpeed="max"/>
    <trip id="hour_18_2659" depart="64807.43" from="452051337" to="134105523" fromTaz="origin-X7Y1" toTaz="fringe-X24Y16" departLane="free" departSpeed="max"/>
    <trip id="hour_18_1320" depart="64808.07" from="-184785913" to="290538999" fromTaz="grid-X20Y11" toTaz="destination-X19Y25" departLane="free" departSpeed="max"/>
    <trip id="hour_18_1478" depart="64808.39" from="207067936" to="237582244" fromTaz="grid-X2Y14" toTaz="fringe-X1Y12" departLane="free" departSpeed="max"/>
    <trip id="hour_18_1833" depart="64808.62" from="-11939534222" to="5213455" fromTaz="grid-X8Y23" toTaz="fringe-X7Y28" departLane="free" departSpeed="max"/>
    <trip id="hour_18_495" depart="64808.91" from="-10666718" to="290538999" fromTaz="fringe-X19Y23" toTaz="destination-X19Y25" departLane="free" departSpeed="max"/>
    <trip id="hour_18_1834" depart="64809.42" from="155094215" to="290538999" fromTaz="grid-X8Y3" toTaz="destination-X19Y25" departLane="free" departSpeed="max"/>
    <trip id="hour_18_1778" depart="64811.45" from="11939545087" to="-12968189#1" fromTaz="grid-X7Y2" toTaz="fringe-X20Y7" departLane="free" departSpeed="max"/>
    <trip id="hour_18_647" depart="64812.32" from="-143075776" to="375714879" fromTaz="fringe-X20Y21" toTaz="fringe-X18Y26" departLane="free" departSpeed="max"/>
    <trip id="hour_18_2426" depart="64812.48" from="24821181" to="290538999" fromTaz="origin-X4Y30" toTaz="destination-X19Y25" departLane="free" departSpeed="max"/>
    <trip id="hour_18_1504" depart="64812.61" from="207067934" to="237582244" fromTaz="grid-X3Y14" toTaz="fringe-X1Y12" departLane="free" departSpeed="max"/>
    <trip id="hour_18_2508" depart="64812.68" from="24821181" to="290538999" fromTaz="origin-X4Y30" toTaz="destination-X19Y25" departLane="free" departSpeed="max"/>
    <trip id="hour_18_339" depart="64812.86" from="375714879" to="-12968189#1" fromTaz="fringe-X18Y26" toTaz="fringe-X20Y7" departLane="free" departSpeed="max"/>
    <trip id="hour_18_2572" depart="64813.10" from="452051337" to="290538999" fromTaz="origin-X7Y1" toTaz="destination-X19Y25" departLane="free" departSpeed="max"/>
    <trip id="hour_18_125" depart="64813.17" from="654765962" to="4056716" fromTaz="fringe-X16Y17" toTaz="grid-X6Y18" departLane="free" departSpeed="max"/>
    <trip id="hour_18_1418" depart="64814.07" from="-24542446" to="158346014" fromTaz="grid-X22Y14" toTaz="fringe-X19Y10" departLane="free" departSpeed="max"/>
    <trip id="hour_18_1020" depart="64814.59" from="-11939531318" to="654765962" fromTaz="grid-X10Y24" toTaz="fringe-X16Y17" departLane="free" departSpeed="max"/>
    <trip id="hour_18_1199" depart="64814.93" from="-28234484" to="158347370" fromTaz="grid-X15Y5" toTaz="fringe-X19Y10" departLane="free" departSpeed="max"/>
    <trip id="hour_18_2413" depart="64815.14" from="24821181" to="290538999" fromTaz="origin-X4Y30" toTaz="destination-X19Y25" departLane="free" departSpeed="max"/>
    <trip id="hour_18_981" depart="64815.27" from="929240359" to="-654765962" fromTaz="fringe-X7Y28" toTaz="fringe-X16Y17" departLane="free" departSpeed="max"/>
    <trip id="hour_18_1818" depart="64815.34" from="-46650702" to="-237582244" fromTaz="grid-X8Y2" toTaz="fringe-X1Y12" departLane="free" departSpeed="max"/>
    <trip id="hour_18_973" depart="64815.75" from="929240359" to="275056710" fromTaz="fringe-X7Y28" toTaz="destination-X4Y30" departLane="free" departSpeed="max"/>
    <trip id="hour_18_2684" depart="64815.76" from="452051337" to="346397318" fromTaz="origin-X7Y1" toTaz="grid-X19Y8" departLane="free" departSpeed="max"/>
    <trip id="hour_18_2309" depart="64815.90" from="24821181" to="290538999" fromTaz="origin-X4Y30" toTaz="destination-X19Y25" departLane="free" departSpeed="max"/>
    <trip id="hour_18_2653" depart="64816.66" from="452051337" to="8896380" fromTaz="origin-X7Y1" toTaz="fringe-X23Y15" departLane="free" departSpeed="max"/>
    <trip id="hour_18_2092" depart="64816.72" from="185260338" to="275056710" fromTaz="origin-X20Y25" toTaz="destination-X4Y30" departLane="free" departSpeed="max"/>
    <trip id="hour_18_82" depart="64816.72" from="87194347" to="307023793" fromTaz="fringe-X11Y4" toTaz="fringe-X23Y15" departLane="free" departSpeed="max"/>
    <trip id="hour_18_407" depart="64817.18" from="287201448" to="452051334" fromTaz="fringe-X18Y9" toTaz="destination-X7Y1" departLane="free" departSpeed="max"/>
    <trip id="hour_18_143" depart="64817.81" from="11939526419" to="290538999" fromTaz="fringe-X16Y26" toTaz="destination-X19Y25" departLane="free" departSpeed="max"/>
    <trip id="hour_18_2088" depart="64817.91" from="185260338" to="275056710" fromTaz="origin-X20Y25" toTaz="destination-X4Y30" departLane="free" departSpeed="max"/>
    <trip id="hour_18_26" depart="64818.13" from="164785142" to="452051334" fromTaz="fringe-X11Y4" toTaz="destination-X7Y1" departLane="free" departSpeed="max"/>
    <trip id="hour_18_741" depart="64818.78" from="479358807" to="375714879" fromTaz="fringe-X22Y14" toTaz="fringe-X18Y26" departLane="free" departSpeed="max"/>
    <trip id="hour_18_687" depart="64818.97" from="12968189#1" to="8896380" fromTaz="fringe-X20Y7" toTaz="fringe-X23Y15" departLane="free" departSpeed="max"/>
    <trip id="hour_18_1217" depart="64819.54" from="-11939527656" to="158346347" fromTaz="grid-X15Y6" toTaz="fringe-X19Y10" departLane="free" departSpeed="max"/>
    <trip id="hour_18_2282" depart="64819.73" from="24821181" to="290538999" fromTaz="origin-X4Y30" toTaz="destination-X19Y25" departLane="free" departSpeed="max"/>
    <trip id="hour_18_2227" depart="64819.83" from="24821181" to="290538999" fromTaz="origin-X4Y30" toTaz="destination-X19Y25" departLane="free" departSpeed="max"/>
    <trip id="hour_18_1864" depart="64820.09" from="155094219" to="4414008" fromTaz="grid-X8Y3" toTaz="fringe-X19Y10" departLane="free" departSpeed="max"/>
    <trip id="hour_18_2431" depart="64820.18" from="24821181" to="290538999" fromTaz="origin-X4Y30" toTaz="destination-X19Y25" departLane="free" departSpeed="max"/>
    <trip id="hour_18_2139" depart="64820.25" from="185260338" to="275056710" fromTaz="origin-X20Y25" toTaz="destination-X4Y30" departLane="free" departSpeed="max"/>
    <trip id="hour_18_2254" depart="64820.36" from="24821181" to="290538999" fromTaz="origin-X4Y30" toTaz="destination-X19Y25" departLane="free" departSpeed="max"/>
    <trip id="hour_18_434" depart="64820.98" from="158346014" to="290538999" fromTaz="fringe-X19Y10" toTaz="destination-X19Y25" departLane="free" departSpeed="max"/>
    <trip id="hour_18_1832" depart="64821.20" from="-185404670" to="-237582244" fromTaz="grid-X8Y23" toTaz="fringe-X1Y12" departLane="free" departSpeed="max"/>
    <trip id="hour_18_1842" depart="64821.26" from="-71890080" to="452051334" fromTaz="grid-X8Y3" toTaz="destination-X7Y1" departLane="free" departSpeed="max"/>
    <trip id="hour_18_2560" depart="64821.41" from="452051337" to="290538999" fromTaz="origin-X7Y1" toTaz="destination-X19Y25" departLane="free" departSpeed="max"/>
    <trip id="hour_18_1905" depart="64822.64" from="-11939525778" to="452051334" fromTaz="grid-X9Y2" toTaz="destination-X7Y1" departLane="free" departSpeed="max"/>
    <trip id="hour_18_103" depart="64822.71" from="87194347" to="-11939529618" fromTaz="fringe-X11Y4" toTaz="grid-X8Y1" departLane="free" departSpeed="max"/>
    <trip id="hour_18_1258" depart="64822.82" from="-451704782" to="307023793" fromTaz="grid-X17Y6" toTaz="fringe-X23Y15" departLane="free" departSpeed="max"/>
    <trip id="hour_18_593" depart="64823.70" from="-10666718" to="375714879" fromTaz="fringe-X19Y23" toTaz="fringe-X18Y26" departLane="free" departSpeed="max"/>
    <trip id="hour_18_1286" depart="64824.44" from="-346397321" to="158347370" fromTaz="grid-X19Y7" toTaz="fringe-X19Y10" departLane="free" departSpeed="max"/>
    <trip id="hour_18_577" depart="64824.98" from="326780462" to="-375714879" fromTaz="fringe-X19Y23" toTaz="fringe-X18Y26" departLane="free" departSpeed="max"/>
    <trip id="hour_18_789" depart="64826.00" from="-479358807" to="396808035" fromTaz="fringe-X22Y14" toTaz="grid-X17Y6" departLane="free" departSpeed="max"/>
    <trip id="hour_18_281" depart="64826.51" from="-375714879" to="158347370" fromTaz="fringe-X18Y26" toTaz="fringe-X19Y10" departLane="free" departSpeed="max"/>
    <trip id="hour_18_1308" depart="64826.53" from="67016393" to="275056710" fromTaz="grid-X1Y23" toTaz="destination-X4Y30" departLane="free" departSpeed="max"/>
    <trip id="hour_18_1776" depart="64826.84" from="-71736663" to="-12968189#1" fromTaz="grid-X7Y2" toTaz="fringe-X20Y7" departLane="free" departSpeed="max"/>
    <trip id="hour_18_1111" depart="64826.98" from="164786400" to="452051334" fromTaz="grid-X12Y4" toTaz="destination-X7Y1" departLane="free" departSpeed="max"/>
    <trip id="hour_18_57" depart="64827.48" from="164785142" to="452051334" fromTaz="fringe-X11Y4" toTaz="destination-X7Y1" departLane="free" departSpeed="max"/>
    <trip id="hour_18_1781" depart="64828.77" from="-11939534361" to="307023793" fromTaz="grid-X7Y2" toTaz="fringe-X23Y15" departLane="free" departSpeed="max"/>
    <trip id="hour_18_1180" depart="64828.78" from="-11939525979" to="307023793" fromTaz="grid-X14Y5" toTaz="fringe-X23Y15" departLane="free" departSpeed="max"/>
    <trip id="hour_18_2101" depart="64829.78" from="185260338" to="275056710" fromTaz="origin-X20Y25" toTaz="destination-X4Y30" departLane="free" departSpeed="max"/>
    <trip id="hour_18_723" depart="64829.82" from="-479358807" to="452051334" fromTaz="fringe-X22Y14" toTaz="destination-X7Y1" departLane="free" departSpeed="max"/>
    <trip id="hour_18_2243" depart="64829.99" from="24821181" to="290538999" fromTaz="origin-X4Y30" toTaz="destination-X19Y25" departLane="free" departSpeed="max"/>
    <trip id="hour_18_1763" depart="64830.26" from="-11939545087" to="87194342" fromTaz="grid-X7Y2" toTaz="fringe-X11Y4" departLane="free" departSpeed="max"/>
    <trip id="hour_18_79" depart="64830.86" from="164785142" to="12968189#1" fromTaz="fringe-X11Y4" toTaz="fringe-X20Y7" departLane="free" departSpeed="max"/>
    <trip id="hour_18_2652" depart="64830.87" from="452051337" to="307024527" fromTaz="origin-X7Y1" toTaz="fringe-X23Y15" departLane="free" departSpeed="max"/>
    <trip id="hour_18_2203" depart="64830.97" from="185260338" to="375714879" fromTaz="origin-X20Y25" toTaz="fringe-X18Y26" departLane="free" departSpeed="max"/>
    <trip id="hour_18_529" depart="64831.44" from="-10666718" to="275056710" fromTaz="fringe-X19Y23" toTaz="destination-X4Y30" departLane="free" departSpeed="max"/>
    <trip id="hour_18_1281" depart="64831.70" from="11939544678" to="307024526" fromTaz="grid-X18Y7" toTaz="fringe-X23Y15" departLane="free" departSpeed="max"/>
    <trip id="hour_18_1908" depart="64831.76" from="11939525680" to="452051334" fromTaz="grid-X9Y2" toTaz="destination-X7Y1" departLane="free" departSpeed="max"/>
    <trip id="hour_18_1249" depart="64832.14" from="451704789" to="452051334" fromTaz="grid-X17Y6" toTaz="destination-X7Y1" departLane="free" departSpeed="max"/>
    <trip id="hour_18_238" depart="64832.34" from="-375714879" to="290538999" fromTaz="fringe-X18Y26" toTaz="destination-X19Y25" departLane="free" departSpeed="max"/>
    <trip id="hour_18_2067" depart="64832.95" from="185260338" to="275056710" fromTaz="origin-X20Y25" toTaz="destination-X4Y30" departLane="free" departSpeed="max"/>
    <trip id="hour_18_2113" depart="64833.27" from="185260338" to="275056710" fromTaz="origin-X20Y25" toTaz="destination-X4Y30" departLane="free" departSpeed="max"/>
    <trip id="hour_18_212" depart="64833.49" from="326594940" to="24793256" fromTaz="fringe-X16Y26" toTaz="fringe-X23Y16" departLane="free" departSpeed="max"/>
    <trip id="hour_18_986" depart="64833.50" from="154716118" to="-11939530090" fromTaz="fringe-X7Y28" toTaz="grid-X11Y19" departLane="free" departSpeed="max"/>
    <trip id="hour_18_616" depart="64833.54" from="-958174516" to="275056710" fromTaz="fringe-X1Y23" toTaz="destination-X4Y30" departLane="free" departSpeed="max"/>
    <trip id="hour_18_1779" depart="64833.79" from="-11939534360" to="307024527" fromTaz="grid-X7Y2" toTaz="fringe-X23Y15" departLane="free" departSpeed="max"/>
    <trip id="hour_18_459" depart="64833.79" from="158347370" to="375714879" fromTaz="fringe-X19Y10" toTaz="fringe-X18Y26" departLane="free" departSpeed="max"/>
    <trip id="hour_18_1380" depart="64833.96" from="1009757382" to="-12968189#1" fromTaz="grid-X21Y12" toTaz="fringe-X20Y7" departLane="free" departSpeed="max"/>
    <trip id="hour_18_1038" depart="64834.27" from="11939543985" to="-326572945" fromTaz="grid-X11Y19" toTaz="fringe-X7Y28" departLane="free" departSpeed="max"/>
    <trip id="hour_18_776" depart="64834.92" from="-479358807" to="8896380" fromTaz="fringe-X22Y14" toTaz="fringe-X23Y15" departLane="free" departSpeed="max"/>
    <trip id="hour_18_1567" depart="64835.00" from="-11939529258" to="-237582244" fromTaz="grid-X4Y14" toTaz="fringe-X1Y12" departLane="free" departSpeed="max"/>
    <trip id="hour_18_1148" depart="64835.56" from="-247882786" to="4414008" fromTaz="grid-X13Y5" toTaz="fringe-X19Y10" departLane="free" departSpeed="max"/>
    <trip id="hour_18_624" depart="64835.85" from="958174516" to="-674618166" fromTaz="fringe-X1Y23" toTaz="grid-X2Y25" departLane="free" departSpeed="max"/>
    <trip id="hour_18_673" depart="64836.13" from="12968189#1" to="375714879" fromTaz="fringe-X20Y7" toTaz="fringe-X18Y26" departLane="free" departSpeed="max"/>
    <trip id="hour_18_1232" depart="64836.58" from="-451704773" to="452051334" fromTaz="grid-X16Y6" toTaz="destination-X7Y1" departLane="free" departSpeed="max"/>
    <trip id="hour_18_754" depart="64836.64" from="479358807" to="158347370" fromTaz="fringe-X22Y14" toTaz="fringe-X19Y10" departLane="free" departSpeed="max"/>
    <trip id="hour_18_179" depart="64837.12" from="24711105" to="143075780" fromTaz="fringe-X16Y26" toTaz="fringe-X20Y21" departLane="free" departSpeed="max"/>
    <trip id="hour_18_1295" depart="64837.22" from="264652041" to="307023793" fromTaz="grid-X19Y8" toTaz="fringe-X23Y15" departLane="free" departSpeed="max"/>
    <trip id="hour_18_1645" depart="64837.39" from="11939525315" to="-237582244" fromTaz="grid-X5Y23" toTaz="fringe-X1Y12" departLane="free" departSpeed="max"/>
    <trip id="hour_18_470" depart="64837.74" from="158346347" to="307024527" fromTaz="fringe-X19Y10" toTaz="fringe-X23Y15" departLane="free" departSpeed="max"/>
    <trip id="hour_18_1656" depart="64837.93" from="464599485" to="654765962" fromTaz="grid-X5Y26" toTaz="fringe-X16Y17" departLane="free" departSpeed="max"/>
    <trip id="hour_18_2623" depart="64838.13" from="452051337" to="143075776" fromTaz="origin-X7Y1" toTaz="fringe-X20Y21" departLane="free" departSpeed="max"/>
    <trip id="hour_18_1398" depart="64838.89" from="-161230209" to="452051334" fromTaz="grid-X22Y13" toTaz="destination-X7Y1" departLane="free" departSpeed="max"/>
    <trip id="hour_18_277" depart="64839.02" from="-375714879" to="287201448" fromTaz="fringe-X18Y26" toTaz="fringe-X18Y9" departLane="free" departSpeed="max"/>
    <trip id="hour_18_120" depart="64839.03" from="654765962" to="-11939545437" fromTaz="fringe-X16Y17" toTaz="grid-X5Y22" departLane="free" departSpeed="max"/>
    <trip id="hour_18_955" depart="64839.29" from="326572945" to="275056710" fromTaz="fringe-X7Y28" toTaz="destination-X4Y30" departLane="free" departSpeed="max"/>
    <trip id="hour_18_2607" depart="64839.54" from="452051337" to="158346347" fromTaz="origin-X7Y1" toTaz="fringe-X19Y10" departLane="free" departSpeed="max"/>
    <trip id="hour_18_2452" depart="64839.97" from="24821181" to="290538999" fromTaz="origin-X4Y30" toTaz="destination-X19Y25" departLane="free" departSpeed="max"/>
    <trip id="hour_18_62" depart="64840.24" from="164785144" to="-52045883" fromTaz="fringe-X11Y4" toTaz="fringe-X10Y1" departLane="free" departSpeed="max"/>
    <trip id="hour_18_554" depart="64840.26" from="326780462" to="11939526419" fromTaz="fringe-X19Y23" toTaz="fringe-X16Y26" departLane="free" departSpeed="max"/>
    <trip id="hour_18_850" depart="64840.97" from="-24793256" to="375714879" fromTaz="fringe-X23Y16" toTaz="fringe-X18Y26" departLane="free" departSpeed="max"/>
    <trip id="hour_18_1154" depart="64841.66" from="-451730193" to="307024527" fromTaz="grid-X13Y5" toTaz="fringe-X23Y15" departLane="free" departSpeed="max"/>
    <trip id="hour_18_73" depart="64842.16" from="87194347" to="158346014" fromTaz="fringe-X11Y4" toTaz="fringe-X19Y10" departLane="free" departSpeed="max"/>
    <trip id="hour_18_1583" depart="64842.67" from="11939526724" to="-654765962" fromTaz="grid-X4Y26" toTaz="fringe-X16Y17" departLane="free" departSpeed="max"/>
    <trip id="hour_18_1139" depart="64842.84" from="-28565158" to="237130850" fromTaz="grid-X13Y5" toTaz="fringe-X16Y26" departLane="free" departSpeed="max"/>
    <trip id="hour_18_560" depart="64842.93" from="326780462" to="375714879" fromTaz="fringe-X19Y23" toTaz="fringe-X18Y26" departLane="free" departSpeed="max"/>
    <trip id="hour_18_305" depart="64843.83" from="-375714879" to="-326780459" fromTaz="fringe-X18Y26" toTaz="fringe-X19Y22" departLane="free" departSpeed="max"/>
    <trip id="hour_18_648" depart="64844.26" from="143075776" to="375714879" fromTaz="fringe-X20Y21" toTaz="fringe-X18Y26" departLane="free" departSpeed="max"/>
    <trip id="hour_18_1126" depart="64844.80" from="11939547622" to="307024527" fromTaz="grid-X12Y4" toTaz="fringe-X23Y15" departLane="free" departSpeed="max"/>
    <trip id="hour_18_1275" depart="64844.99" from="451704787" to="307024526" fromTaz="grid-X17Y7" toTaz="fringe-X23Y15" departLane="free" departSpeed="max"/>
    <trip id="hour_18_1637" depart="64846.05" from="-11939540241" to="-654765962" fromTaz="grid-X5Y22" toTaz="fringe-X16Y17" departLane="free" departSpeed="max"/>
    <trip id="hour_18_2273" depart="64846.26" from="24821181" to="290538999" fromTaz="origin-X4Y30" toTaz="destination-X19Y25" departLane="free" departSpeed="max"/>
    <trip id="hour_18_1513" depart="64846.54" from="109793913" to="275056710" fromTaz="grid-X3Y26" toTaz="destination-X4Y30" departLane="free" departSpeed="max"/>
    <trip id="hour_18_1709" depart="64846.55" from="174824210" to="-237582244" fromTaz="grid-X6Y17" toTaz="fringe-X1Y12" departLane="free" departSpeed="max"/>
    <trip id="hour_18_2345" depart="64846.79" from="24821181" to="290538999" fromTaz="origin-X4Y30" toTaz="destination-X19Y25" departLane="free" departSpeed="max"/>
    <trip id="hour_18_2608" depart="64846.85" from="452051337" to="158347370" fromTaz="origin-X7Y1" toTaz="fringe-X19Y10" departLane="free" departSpeed="max"/>
    <trip id="hour_18_710" depart="64847.16" from="-121921459" to="307024527" fromTaz="fringe-X22Y11" toTaz="fringe-X23Y15" departLane="free" departSpeed="max"/>
    <trip id="hour_18_774" depart="64848.42" from="-479358807" to="307023793" fromTaz="fringe-X22Y14" toTaz="fringe-X23Y15" departLane="free" departSpeed="max"/>
    <trip id="hour_18_620" depart="64848.71" from="958174516" to="275056710" fromTaz="fringe-X1Y23" toTaz="destination-X4Y30" departLane="free" departSpeed="max"/>
    <trip id="hour_18_539" depart="64848.84" from="-10666718" to="11939526419" fromTaz="fringe-X19Y23" toTaz="fringe-X16Y26" departLane="free" departSpeed="max"/>
    <trip id="hour_18_2146" depart="64849.06" from="185260338" to="275056710" fromTaz="origin-X20Y25" toTaz="destination-X4Y30" departLane="free" departSpeed="max"/>
    <trip id="hour_18_127" depart="64849.13" from="-654765962" to="685134962" fromTaz="fringe-X16Y17" toTaz="grid-X7Y23" departLane="free" departSpeed="max"/>
    <trip id="hour_18_1829" depart="64849.85" from="-38662842" to="-654765962" fromTaz="grid-X8Y23" toTaz="fringe-X16Y17" departLane="free" departSpeed="max"/>
    <trip id="hour_18_1265" depart="64850.13" from="165378136" to="452051334" fromTaz="grid-X17Y7" toTaz="destination-X7Y1" departLane="free" departSpeed="max"/>
    <trip id="hour_18_1662" depart="64850.15" from="-4214915" to="275056710" fromTaz="grid-X5Y27" toTaz="destination-X4Y30" departLane="free" departSpeed="max"/>
    <trip id="hour_18_481" depart="64850.77" from="-326780459" to="-143075780" fromTaz="fringe-X19Y22" toTaz="fringe-X20Y21" departLane="free" departSpeed="max"/>
    <trip id="hour_18_2370" depart="64851.15" from="24821181" to="290538999" fromTaz="origin-X4Y30" toTaz="destination-X19Y25" departLane="free" departSpeed="max"/>
    <trip id="hour_18_1373" depart="64851.87" from="4397733" to="5058806" fromTaz="grid-X21Y12" toTaz="fringe-X18Y9" departLane="free" departSpeed="max"/>
    <trip id="hour_18_2597" depart="64852.02" from="452051337" to="287201448" fromTaz="origin-X7Y1" toTaz="fringe-X18Y9" departLane="free" departSpeed="max"/>
    <trip id="hour_18_11" depart="64852.36" from="-52045883" to="-11939531446" fromTaz="fringe-X10Y1" toTaz="grid-X10Y2" departLane="free" departSpeed="max"/>
    <trip id="hour_18_1337" depart="64852.37" from="171024553" to="452051334" fromTaz="grid-X20Y9" toTaz="destination-X7Y1" departLane="free" departSpeed="max"/>
    <trip id="hour_18_1233" depart="64852.75" from="182037602" to="-375714879" fromTaz="grid-X16Y6" toTaz="fringe-X18Y26" departLane="free" departSpeed="max"/>
    <trip id="hour_18_1516" depart="64852.89" from="11939537337" to="275056710" fromTaz="grid-X3Y26" toTaz="destination-X4Y30" departLane="free" departSpeed="max"/>
    <trip id="hour_18_1381" depart="64853.34" from="1073403974" to="307024527" fromTaz="grid-X21Y12" toTaz="fringe-X23Y15" departLane="free" departSpeed="max"/>
    <trip id="hour_18_157" depart="64853.48" from="24711107" to="4414008" fromTaz="fringe-X16Y26" toTaz="fringe-X19Y10" departLane="free" departSpeed="max"/>
    <trip id="hour_18_2353" depart="64853.50" from="24821181" to="290538999" fromTaz="origin-X4Y30" toTaz="destination-X19Y25" departLane="free" departSpeed="max"/>
    <trip id="hour_18_545" depart="64853.69" from="-10666718" to="150270054" fromTaz="fringe-X19Y23" toTaz="fringe-X16Y26" departLane="free" departSpeed="max"/>
    <trip id="hour_18_1502" depart="64853.94" from="11939527018" to="-237582244" fromTaz="grid-X3Y14" toTaz="fringe-X1Y12" departLane="free" departSpeed="max"/>
    <trip id="hour_18_496" depart="64854.47" from="326780462" to="290538999" fromTaz="fringe-X19Y23" toTaz="destination-X19Y25" departLane="free" departSpeed="max"/>
    <trip id="hour_18_122" depart="64854.70" from="654765962" to="409783345" fromTaz="fringe-X16Y17" toTaz="grid-X5Y26" departLane="free" departSpeed="max"/>
    <trip id="hour_18_857" depart="64855.09" from="-24793256" to="143075780" fromTaz="fringe-X23Y16" toTaz="fringe-X20Y21" departLane="free" departSpeed="max"/>
    <trip id="hour_18_6" depart="64855.65" from="-52045883" to="452051334" fromTaz="fringe-X10Y1" toTaz="destination-X7Y1" departLane="free" departSpeed="max"/>
    <trip id="hour_18_1212" depart="64855.68" from="247882785" to="452051334" fromTaz="grid-X15Y6" toTaz="destination-X7Y1" departLane="free" departSpeed="max"/>
    <trip id="hour_18_2543" depart="64855.81" from="24821181" to="-11939524507" fromTaz="origin-X4Y30" toTaz="grid-X9Y22" departLane="free" departSpeed="max"/>
    <trip id="hour_18_1600" depart="64856.20" from="-11939546521" to="275056710" fromTaz="grid-X4Y28" toTaz="destination-X4Y30" departLane="free" departSpeed="max"/>
    <trip id="hour_18_1669" depart="64856.27" from="-142676274" to="275056710" fromTaz="grid-X5Y28" toTaz="destination-X4Y30" departLane="free" departSpeed="max"/>
    <trip id="hour_18_883" depart="64857.01" from="40425140" to="275056710" fromTaz="fringe-X4Y29" toTaz="destination-X4Y30" departLane="free" departSpeed="max"/>
    <trip id="hour_18_2160" depart="64857.29" from="185260338" to="275056710" fromTaz="origin-X20Y25" toTaz="destination-X4Y30" departLane="free" departSpeed="max"/>
    <trip id="hour_18_576" depart="64858.21" from="-10666718" to="-375714879" fromTaz="fringe-X19Y23" toTaz="fringe-X18Y26" departLane="free" departSpeed="max"/>
    <trip id="hour_18_740" depart="64858.29" from="479358807" to="375714879" fromTaz="fringe-X22Y14" toTaz="fringe-X18Y26" departLane="free" departSpeed="max"/>
    <trip id="hour_18_1219" depart="64858.88" from="28234484" to="-12968189#1" fromTaz="grid-X15Y6" toTaz="fringe-X20Y7" departLane="free" departSpeed="max"/>
    <trip id="hour_18_915" depart="64859.00" from="-40425140" to="275056710" fromTaz="fringe-X4Y29" toTaz="destination-X4Y30" departLane="free" departSpeed="max"/>
    <trip id="hour_18_965" depart="64859.07" from="-326572945" to="275056710" fromTaz="fringe-X7Y28" toTaz="destination-X4Y30" departLane="free" departSpeed="max"/>
    <trip id="hour_18_1605" depart="64859.67" from="11939523881" to="237582244" fromTaz="grid-X4Y28" toTaz="fringe-X1Y12" departLane="free" departSpeed="max"/>
    <trip id="hour_18_1083" depart="64859.86" from="-11939526284" to="150270059" fromTaz="grid-X11Y4" toTaz="fringe-X16Y26" departLane="free" departSpeed="max"/>
    <trip id="hour_18_1288" depart="64861.11" from="171007703" to="307024526" fromTaz="grid-X19Y7" toTaz="fringe-X23Y15" departLane="free" departSpeed="max"/>
    <trip id="hour_18_1263" depart="64861.27" from="56469031" to="452051334" fromTaz="grid-X17Y7" toTaz="destination-X7Y1" departLane="free" departSpeed="max"/>
    <trip id="hour_18_2487" depart="64861.49" from="24821181" to="290538999" fromTaz="origin-X4Y30" toTaz="destination-X19Y25" departLane="free" departSpeed="max"/>
    <trip id="hour_18_533" depart="64861.86" from="10666718" to="275056710" fromTaz="fringe-X19Y23" toTaz="destination-X4Y30" departLane="free" departSpeed="max"/>
    <trip id="hour_18_2044" depart="64861.92" from="185260338" to="275056710" fromTaz="origin-X20Y25" toTaz="destination-X4Y30" departLane="free" departSpeed="max"/>
    <trip id="hour_18_1853" depart="64862.02" from="987011928" to="326594940" fromTaz="grid-X8Y3" toTaz="fringe-X16Y26" departLane="free" departSpeed="max"/>
    <trip id="hour_18_1453" depart="64862.19" from="11939526842" to="-143075780" fromTaz="grid-X23Y16" toTaz="fringe-X20Y21" departLane="free" departSpeed="max"/>
    <trip id="hour_18_1061" depart="64862.93" from="734928999" to="-654765962" fromTaz="grid-X11Y26" toTaz="fringe-X16Y17" departLane="free" departSpeed="max"/>
    <trip id="hour_18_1192" depart="64863.80" from="-11939548477" to="-375714879" fromTaz="grid-X15Y5" toTaz="fringe-X18Y26" departLane="free" departSpeed="max"/>
    <trip id="hour_18_2177" depart="64863.81" from="185260338" to="275056710" fromTaz="origin-X20Y25" toTaz="destination-X4Y30" departLane="free" departSpeed="max"/>