<?xml version="1.0" encoding="UTF-8"?>

<routes xmlns:xsi="http://www.w3.org/2001/XMLSchema-instance" xsi:noNamespaceSchemaLocation="http://sumo.dlr.de/xsd/routes_file.xsd">
    <trip id="hour_19_171" depart="68400.81" from="150270059" to="-134105523" fromTaz="fringe-X16Y26" toTaz="fringe-X24Y16" departLane="free" departSpeed="max"/>
    <trip id="hour_19_569" depart="68400.90" from="-40425140" to="-4214915" fromTaz="fringe-X4Y29" toTaz="grid-X5Y27" departLane="free" departSpeed="max"/>
    <trip id="hour_19_134" depart="68401.15" from="11939526419" to="143075776" fromTaz="fringe-X16Y26" toTaz="fringe-X20Y21" departLane="free" departSpeed="max"/>
    <trip id="hour_19_1620" depart="68401.55" from="452051337" to="-479358807" fromTaz="origin-X7Y1" toTaz="fringe-X22Y14" departLane="free" departSpeed="max"/>
    <trip id="hour_19_123" depart="68401.83" from="326594940" to="287201448" fromTaz="fringe-X16Y26" toTaz="fringe-X18Y9" departLane="free" departSpeed="max"/>
    <trip id="hour_19_1197" depart="68401.85" from="185260338" to="275056710" fromTaz="origin-X20Y25" toTaz="destination-X4Y30" departLane="free" departSpeed="max"/>
    <trip id="hour_19_514" depart="68402.24" from="-24793256" to="11939527656" fromTaz="fringe-X23Y16" toTaz="grid-X16Y6" departLane="free" departSpeed="max"/>
    <trip id="hour_19_919" depart="68402.92" from="-928911594" to="-24793256" fromTaz="grid-X5Y26" toTaz="fringe-X23Y16" departLane="free" departSpeed="max"/>
    <trip id="hour_19_619" depart="68403.14" from="11939532464" to="275056710" fromTaz="grid-X10Y25" toTaz="destination-X4Y30" departLane="free" departSpeed="max"/>
    <trip id="hour_19_1289" depart="68403.53" from="185260338" to="275056710" fromTaz="origin-X20Y25" toTaz="destination-X4Y30" departLane="free" departSpeed="max"/>
    <trip id="hour_19_1153" depart="68403.98" from="185260338" to="275056710" fromTaz="origin-X20Y25" toTaz="destination-X4Y30" departLane="free" departSpeed="max"/>
    <trip id="hour_19_1446" depart="68404.33" from="24821181" to="290538999" fromTaz="origin-X4Y30" toTaz="destination-X19Y25" departLane="free" departSpeed="max"/>
    <trip id="hour_19_1251" depart="68404.55" from="185260338" to="275056710" fromTaz="origin-X20Y25" toTaz="destination-X4Y30" departLane="free" departSpeed="max"/>
    <trip id="hour_19_731" depart="68405.00" from="-11939532094" to="452051334" fromTaz="grid-X20Y9" toTaz="destination-X7Y1" departLane="free" departSpeed="max"/>
    <trip id="hour_19_669" depart="68405.11" from="-451704786" to="452051334" fromTaz="grid-X17Y6" toTaz="destination-X7Y1" departLane="free" departSpeed="max"/>
    <trip id="hour_19_277" depart="68406.14" from="10666718" to="290538999" fromTaz="fringe-X19Y23" toTaz="destination-X19Y25" departLane="free" departSpeed="max"/>
    <trip id="hour_19_1600" depart="68406.35" from="452051337" to="-121921459" fromTaz="origin-X7Y1" toTaz="fringe-X22Y11" departLane="free" departSpeed="max"/>
    <trip id="hour_19_38" depart="68407.38" from="87194342" to="974405303" fromTaz="fringe-X11Y4" toTaz="grid-X4Y10" departLane="free" departSpeed="max"/>
    <trip id="hour_19_107" depart="68407.90" from="11939526419" to="275056710" fromTaz="fringe-X16Y26" toTaz="destination-X4Y30" departLane="free" departSpeed="max"/>
    <trip id="hour_19_1395" depart="68408.39" from="24821181" to="290538999" fromTaz="origin-X4Y30" toTaz="destination-X19Y25" departLane="free" departSpeed="max"/>
    <trip id="hour_19_205" depart="68408.81" from="-375714879" to="275056710" fromTaz="fringe-X18Y26" toTaz="destination-X4Y30" departLane="free" departSpeed="max"/>
    <trip id="hour_19_465" depart="68408.91" from="8896380" to="452051334" fromTaz="fringe-X23Y15" toTaz="destination-X7Y1" departLane="free" departSpeed="max"/>
    <trip id="hour_19_1424" depart="68412.61" from="24821181" to="290538999" fromTaz="origin-X4Y30" toTaz="destination-X19Y25" departLane="free" departSpeed="max"/>
    <trip id="hour_19_336" depart="68412.86" from="10666718" to="326572941" fromTaz="fringe-X19Y23" toTaz="fringe-X7Y28" departLane="free" departSpeed="max"/>
    <trip id="hour_19_281" depart="68412.93" from="10666718" to="290538999" fromTaz="fringe-X19Y23" toTaz="destination-X19Y25" departLane="free" departSpeed="max"/>
    <trip id="hour_19_452" depart="68412.98" from="-479358807" to="-12968189#1" fromTaz="fringe-X22Y14" toTaz="fringe-X20Y7" departLane="free" departSpeed="max"/>
    <trip id="hour_19_150" depart="68413.05" from="11939526419" to="-479358807" fromTaz="fringe-X16Y26" toTaz="fringe-X22Y14" departLane="free" departSpeed="max"/>
    <trip id="hour_19_1581" depart="68413.26" from="452051337" to="121921459" fromTaz="origin-X7Y1" toTaz="fringe-X22Y11" departLane="free" departSpeed="max"/>
    <trip id="hour_19_1330" depart="68414.07" from="185260338" to="275056710" fromTaz="origin-X20Y25" toTaz="destination-X4Y30" departLane="free" departSpeed="max"/>
    <trip id="hour_19_1087" depart="68414.93" from="11939544848" to="24793256" fromTaz="grid-X8Y3" toTaz="fringe-X23Y16" departLane="free" departSpeed="max"/>
    <trip id="hour_19_1347" depart="68415.11" from="185260338" to="275056710" fromTaz="origin-X20Y25" toTaz="destination-X4Y30" departLane="free" departSpeed="max"/>
    <trip id="hour_19_1480" depart="68415.17" from="24821181" to="290538999" fromTaz="origin-X4Y30" toTaz="destination-X19Y25" departLane="free" departSpeed="max"/>
    <trip id="hour_19_777" depart="68417.13" from="-11939543535" to="37850228" fromTaz="grid-X21Y12" toTaz="fringe-X7Y0" departLane="free" departSpeed="max"/>
    <trip id="hour_19_95" depart="68417.50" from="11939526419" to="275056710" fromTaz="fringe-X16Y26" toTaz="destination-X4Y30" departLane="free" departSpeed="max"/>
    <trip id="hour_19_25" depart="68418.13" from="164785142" to="-237582244" fromTaz="fringe-X11Y4" toTaz="fringe-X1Y12" departLane="free" departSpeed="max"/>
    <trip id="hour_19_640" depart="68418.97" from="11939525406" to="290538999" fromTaz="grid-X11Y26" toTaz="destination-X19Y25" departLane="free" departSpeed="max"/>
    <trip id="hour_19_1105" depart="68419.54" from="-11939525680" to="121921459" fromTaz="grid-X9Y2" toTaz="fringe-X22Y11" departLane="free" departSpeed="max"/>
    <trip id="hour_19_352" depart="68419.61" from="-958174516" to="275056710" fromTaz="fringe-X1Y23" toTaz="destination-X4Y30" departLane="free" departSpeed="max"/>
    <trip id="hour_19_1648" depart="68419.64" from="452051337" to="24793256" fromTaz="origin-X7Y1" toTaz="fringe-X23Y16" departLane="free" departSpeed="max"/>
    <trip id="hour_19_424" depart="68419.74" from="12968189#1" to="-11939550480" fromTaz="fringe-X20Y7" toTaz="grid-X24Y15" departLane="free" departSpeed="max"/>
    <trip id="hour_19_632" depart="68420.47" from="11939539847" to="275056710" fromTaz="grid-X11Y25" toTaz="destination-X4Y30" departLane="free" departSpeed="max"/>
    <trip id="hour_19_547" depart="68423.70" from="40425140" to="275056710" fromTaz="fringe-X4Y29" toTaz="destination-X4Y30" departLane="free" departSpeed="max"/>
    <trip id="hour_19_1407" depart="68424.00" from="24821181" to="290538999" fromTaz="origin-X4Y30" toTaz="destination-X19Y25" departLane="free" departSpeed="max"/>
    <trip id="hour_19_1175" depart="68424.44" from="185260338" to="275056710" fromTaz="origin-X20Y25" toTaz="destination-X4Y30" departLane="free" departSpeed="max"/>
    <trip id="hour_19_801" depart="68424.58" from="11939537738" to="452051334" fromTaz="grid-X24Y15" toTaz="destination-X7Y1" departLane="free" departSpeed="max"/>
    <trip id="hour_19_428" depart="68424.80" from="-121921459" to="452051334" fromTaz="fringe-X22Y11" toTaz="destination-X7Y1" departLane="free" departSpeed="max"/>
    <trip id="hour_19_1465" depart="68424.89" from="24821181" to="290538999" fromTaz="origin-X4Y30" toTaz="destination-X19Y25" departLane="free" departSpeed="max"/>
    <trip id="hour_19_531" depart="68424.98" from="40425140" to="275056710" fromTaz="fringe-X4Y29" toTaz="destination-X4Y30" departLane="free" departSpeed="max"/>
    <trip id="hour_19_728" depart="68426.00" from="11939549659" to="158346347" fromTaz="grid-X20Y7" toTaz="fringe-X19Y10" departLane="free" departSpeed="max"/>
    <trip id="hour_19_1200" depart="68426.53" from="185260338" to="275056710" fromTaz="origin-X20Y25" toTaz="destination-X4Y30" departLane="free" departSpeed="max"/>
    <trip id="hour_19_1305" depart="68428.47" from="185260338" to="275056710" fromTaz="origin-X20Y25" toTaz="destination-X4Y30" departLane="free" departSpeed="max"/>
    <trip id="hour_19_1374" depart="68428.53" from="24821181" to="290538999" fromTaz="origin-X4Y30" toTaz="destination-X19Y25" departLane="free" departSpeed="max"/>
    <trip id="hour_19_1066" depart="68428.78" from="-155094219" to="-479358807" fromTaz="grid-X8Y3" toTaz="fringe-X22Y14" departLane="free" departSpeed="max"/>
    <trip id="hour_19_227" depart="68431.69" from="5058806" to="452051334" fromTaz="fringe-X18Y9" toTaz="destination-X7Y1" departLane="free" departSpeed="max"/>
    <trip id="hour_19_859" depart="68432.26" from="-51850830" to="275056710" fromTaz="grid-X4Y27" toTaz="destination-X4Y30" departLane="free" departSpeed="max"/>
    <trip id="hour_19_126" depart="68433.22" from="237130850" to="158346014" fromTaz="fringe-X16Y26" toTaz="fringe-X19Y10" departLane="free" departSpeed="max"/>
    <trip id="hour_19_1099" depart="68433.34" from="155094215" to="-40425140" fromTaz="grid-X8Y3" toTaz="fringe-X4Y29" departLane="free" departSpeed="max"/>
    <trip id="hour_19_575" depart="68433.54" from="154716118" to="275056710" fromTaz="fringe-X7Y28" toTaz="destination-X4Y30" departLane="free" departSpeed="max"/>
    <trip id="hour_19_435" depart="68433.79" from="-121921459" to="11939523819" fromTaz="fringe-X22Y11" toTaz="grid-X18Y7" departLane="free" departSpeed="max"/>
    <trip id="hour_19_1442" depart="68434.45" from="24821181" to="290538999" fromTaz="origin-X4Y30" toTaz="destination-X19Y25" departLane="free" departSpeed="max"/>
    <trip id="hour_19_1495" depart="68435.00" from="24821181" to="290538999" fromTaz="origin-X4Y30" toTaz="destination-X19Y25" departLane="free" departSpeed="max"/>
    <trip id="hour_19_1481" depart="68435.18" from="24821181" to="290538999" fromTaz="origin-X4Y30" toTaz="destination-X19Y25" departLane="free" departSpeed="max"/>
    <trip id="hour_19_20" depart="68435.86" from="164785142" to="452051334" fromTaz="fringe-X11Y4" toTaz="destination-X7Y1" departLane="free" departSpeed="max"/>
    <trip id="hour_19_1051" depart="68436.35" from="987011928" to="326780461" fromTaz="grid-X8Y3" toTaz="fringe-X19Y22" departLane="free" departSpeed="max"/>
    <trip id="hour_19_1121" depart="68436.58" from="110826577" to="275056710" fromTaz="grid-X9Y23" toTaz="destination-X4Y30" departLane="free" departSpeed="max"/>
    <trip id="hour_19_232" depart="68436.69" from="287201448" to="158346347" fromTaz="fringe-X18Y9" toTaz="fringe-X19Y10" departLane="free" departSpeed="max"/>
    <trip id="hour_19_187" depart="68437.12" from="24711105" to="147488497" fromTaz="fringe-X16Y26" toTaz="grid-X12Y4" departLane="free" departSpeed="max"/>
    <trip id="hour_19_1627" depart="68437.17" from="452051337" to="307024527" fromTaz="origin-X7Y1" toTaz="fringe-X23Y15" departLane="free" departSpeed="max"/>
    <trip id="hour_19_1185" depart="68437.22" from="185260338" to="275056710" fromTaz="origin-X20Y25" toTaz="destination-X4Y30" departLane="free" departSpeed="max"/>
    <trip id="hour_19_1580" depart="68437.39" from="452051337" to="121921459" fromTaz="origin-X7Y1" toTaz="fringe-X22Y11" departLane="free" departSpeed="max"/>
    <trip id="hour_19_445" depart="68437.74" from="-479358807" to="7706026" fromTaz="fringe-X22Y14" toTaz="fringe-X18Y9" departLane="free" departSpeed="max"/>
    <trip id="hour_19_847" depart="68438.12" from="68526138" to="452051334" fromTaz="grid-X4Y11" toTaz="destination-X7Y1" departLane="free" departSpeed="max"/>
    <trip id="hour_19_1307" depart="68438.89" from="185260338" to="275056710" fromTaz="origin-X20Y25" toTaz="destination-X4Y30" departLane="free" departSpeed="max"/>
    <trip id="hour_19_274" depart="68439.02" from="326780462" to="290538999" fromTaz="fringe-X19Y23" toTaz="destination-X19Y25" departLane="free" departSpeed="max"/>
    <trip id="hour_19_327" depart="68441.59" from="-10666718" to="375714879" fromTaz="fringe-X19Y23" toTaz="fringe-X18Y26" departLane="free" departSpeed="max"/>
    <trip id="hour_19_1039" depart="68441.66" from="11939544848" to="-375714879" fromTaz="grid-X8Y3" toTaz="fringe-X18Y26" departLane="free" departSpeed="max"/>
    <trip id="hour_19_911" depart="68442.10" from="11939535983" to="-237582244" fromTaz="grid-X5Y25" toTaz="fringe-X1Y12" departLane="free" departSpeed="max"/>
    <trip id="hour_19_1513" depart="68442.67" from="24821181" to="479358807" fromTaz="origin-X4Y30" toTaz="fringe-X22Y14" departLane="free" departSpeed="max"/>
    <trip id="hour_19_516" depart="68442.93" from="-24793256" to="-11939527829" fromTaz="fringe-X23Y16" toTaz="grid-X19Y8" departLane="free" departSpeed="max"/>
    <trip id="hour_19_972" depart="68443.33" from="11939534360" to="-121921459" fromTaz="grid-X7Y2" toTaz="fringe-X22Y11" departLane="free" departSpeed="max"/>
    <trip id="hour_19_1191" depart="68443.74" from="185260338" to="275056710" fromTaz="origin-X20Y25" toTaz="destination-X4Y30" departLane="free" departSpeed="max"/>
    <trip id="hour_19_302" depart="68443.83" from="-10666718" to="275056710" fromTaz="fringe-X19Y23" toTaz="destination-X4Y30" departLane="free" departSpeed="max"/>
    <trip id="hour_19_1163" depart="68444.99" from="185260338" to="275056710" fromTaz="origin-X20Y25" toTaz="destination-X4Y30" departLane="free" departSpeed="max"/>
    <trip id="hour_19_996" depart="68446.57" from="987109374" to="-24793256" fromTaz="grid-X8Y2" toTaz="fringe-X23Y16" departLane="free" departSpeed="max"/>
    <trip id="hour_19_661" depart="68447.16" from="-11939549118" to="958174516" fromTaz="grid-X12Y26" toTaz="fringe-X1Y23" departLane="free" departSpeed="max"/>
    <trip id="hour_19_812" depart="68448.37" from="-11939530101" to="237582244" fromTaz="grid-X3Y11" toTaz="fringe-X1Y12" departLane="free" departSpeed="max"/>
    <trip id="hour_19_1212" depart="68448.50" from="185260338" to="275056710" fromTaz="origin-X20Y25" toTaz="destination-X4Y30" departLane="free" departSpeed="max"/>
    <trip id="hour_19_579" depart="68448.71" from="929240359" to="275056710" fromTaz="fringe-X7Y28" toTaz="destination-X4Y30" departLane="free" departSpeed="max"/>
    <trip id="hour_19_501" depart="68448.84" from="24793256" to="452051334" fromTaz="fringe-X23Y16" toTaz="destination-X7Y1" departLane="free" departSpeed="max"/>
    <trip id="hour_19_593" depart="68449.01" from="154716118" to="275056710" fromTaz="fringe-X7Y28" toTaz="destination-X4Y30" departLane="free" departSpeed="max"/>
    <trip id="hour_19_1011" depart="68449.05" from="-185404670" to="-143075780" fromTaz="grid-X8Y23" toTaz="fringe-X20Y21" departLane="free" departSpeed="max"/>
    <trip id="hour_19_1599" depart="68450.24" from="452051337" to="-121921459" fromTaz="origin-X7Y1" toTaz="fringe-X22Y11" departLane="free" departSpeed="max"/>
    <trip id="hour_19_1173" depart="68451.58" from="185260338" to="275056710" fromTaz="origin-X20Y25" toTaz="destination-X4Y30" departLane="free" departSpeed="max"/>
    <trip id="hour_19_1277" depart="68451.87" from="185260338" to="275056710" fromTaz="origin-X20Y25" toTaz="destination-X4Y30" departLane="free" departSpeed="max"/>
    <trip id="hour_19_805" depart="68451.97" from="106647106" to="237582244" fromTaz="grid-X2Y13" toTaz="fringe-X1Y12" departLane="free" departSpeed="max"/>
    <trip id="hour_19_1319" depart="68452.27" from="185260338" to="275056710" fromTaz="origin-X20Y25" toTaz="destination-X4Y30" departLane="free" departSpeed="max"/>
    <trip id="hour_19_564" depart="68452.35" from="40425140" to="-958174516" fromTaz="fringe-X4Y29" toTaz="fringe-X1Y23" departLane="free" departSpeed="max"/>
    <trip id="hour_19_8" depart="68452.36" from="87194342" to="452051334" fromTaz="fringe-X11Y4" toTaz="destination-X7Y1" departLane="free" departSpeed="max"/>
    <trip id="hour_19_1234" depart="68452.37" from="185260338" to="275056710" fromTaz="origin-X20Y25" toTaz="destination-X4Y30" departLane="free" departSpeed="max"/>
    <trip id="hour_19_260" depart="68452.47" from="-326780459" to="11939546741" fromTaz="fringe-X19Y22" toTaz="grid-X24Y16" departLane="free" departSpeed="max"/>
    <trip id="hour_19_1122" depart="68452.75" from="50472477" to="275056710" fromTaz="grid-X9Y23" toTaz="destination-X4Y30" departLane="free" departSpeed="max"/>
    <trip id="hour_19_1081" depart="68452.77" from="-71890080" to="24793256" fromTaz="grid-X8Y3" toTaz="fringe-X23Y16" departLane="free" departSpeed="max"/>
    <trip id="hour_19_607" depart="68453.10" from="1081322051" to="275056710" fromTaz="grid-X10Y24" toTaz="destination-X4Y30" departLane="free" departSpeed="max"/>
    <trip id="hour_19_917" depart="68453.80" from="-409783345" to="-479358807" fromTaz="grid-X5Y26" toTaz="fringe-X22Y14" departLane="free" departSpeed="max"/>
    <trip id="hour_19_1422" depart="68453.94" from="24821181" to="290538999" fromTaz="origin-X4Y30" toTaz="destination-X19Y25" departLane="free" departSpeed="max"/>
    <trip id="hour_19_1298" depart="68454.11" from="185260338" to="275056710" fromTaz="origin-X20Y25" toTaz="destination-X4Y30" departLane="free" departSpeed="max"/>
    <trip id="hour_19_466" depart="68454.47" from="307024527" to="452051334" fromTaz="fringe-X23Y15" toTaz="destination-X7Y1" departLane="free" departSpeed="max"/>
    <trip id="hour_19_400" depart="68454.60" from="-143075776" to="375714879" fromTaz="fringe-X20Y21" toTaz="fringe-X18Y26" departLane="free" departSpeed="max"/>
    <trip id="hour_19_1100" depart="68455.68" from="71890079" to="326572941" fromTaz="grid-X8Y3" toTaz="fringe-X7Y28" departLane="free" departSpeed="max"/>
    <trip id="hour_19_1528" depart="68456.20" from="452051337" to="87194342" fromTaz="origin-X7Y1" toTaz="fringe-X11Y4" departLane="free" departSpeed="max"/>
    <trip id="hour_19_1609" depart="68456.27" from="452051337" to="-479358807" fromTaz="origin-X7Y1" toTaz="fringe-X22Y14" departLane="free" departSpeed="max"/>
    <trip id="hour_19_42" depart="68457.85" from="87194342" to="984980715" fromTaz="fringe-X11Y4" toTaz="grid-X5Y10" departLane="free" departSpeed="max"/>
    <trip id="hour_19_530" depart="68458.21" from="-40425140" to="275056710" fromTaz="fringe-X4Y29" toTaz="destination-X4Y30" departLane="free" departSpeed="max"/>
    <trip id="hour_19_1224" depart="68459.43" from="185260338" to="275056710" fromTaz="origin-X20Y25" toTaz="destination-X4Y30" departLane="free" departSpeed="max"/>
    <trip id="hour_19_1177" depart="68459.85" from="185260338" to="275056710" fromTaz="origin-X20Y25" toTaz="destination-X4Y30" departLane="free" departSpeed="max"/>
    <trip id="hour_19_1317" depart="68460.18" from="185260338" to="275056710" fromTaz="origin-X20Y25" toTaz="destination-X4Y30" departLane="free" departSpeed="max"/>
    <trip id="hour_19_634" depart="68460.68" from="-1131051093" to="275056710" fromTaz="grid-X11Y25" toTaz="destination-X4Y30" departLane="free" departSpeed="max"/>
    <trip id="hour_19_877" depart="68461.28" from="-11939532937" to="237582244" fromTaz="grid-X5Y18" toTaz="fringe-X1Y12" departLane="free" departSpeed="max"/>
    <trip id="hour_19_1124" depart="68462.09" from="-11939527317" to="275056710" fromTaz="grid-X9Y23" toTaz="destination-X4Y30" departLane="free" departSpeed="max"/>
    <trip id="hour_19_1367" depart="68462.19" from="24821181" to="290538999" fromTaz="origin-X4Y30" toTaz="destination-X19Y25" departLane="free" departSpeed="max"/>
    <trip id="hour_19_282" depart="68462.24" from="10666718" to="275056710" fromTaz="fringe-X19Y23" toTaz="destination-X4Y30" departLane="free" departSpeed="max"/>
    <trip id="hour_19_1427" depart="68462.44" from="24821181" to="290538999" fromTaz="origin-X4Y30" toTaz="destination-X19Y25" departLane="free" departSpeed="max"/>
    <trip id="hour_19_803" depart="68462.61" from="-11939546953" to="237582244" fromTaz="grid-X2Y11" toTaz="fringe-X1Y12" departLane="free" departSpeed="max"/>
    <trip id="hour_19_651" depart="68463.32" from="734928999" to="154716118" fromTaz="grid-X11Y26" toTaz="fringe-X7Y28" departLane="free" departSpeed="max"/>
    <trip id="hour_19_49" depart="68463.58" from="87194347" to="-68526296" fromTaz="fringe-X11Y4" toTaz="grid-X5Y4" departLane="free" departSpeed="max"/>
    <trip id="hour_19_1080" depart="68463.80" from="-155094219" to="307023793" fromTaz="grid-X8Y3" toTaz="fringe-X23Y15" departLane="free" departSpeed="max"/>
    <trip id="hour_19_1608" depart="68465.23" from="452051337" to="-479358807" fromTaz="origin-X7Y1" toTaz="fringe-X22Y14" departLane="free" departSpeed="max"/>
    <trip id="hour_19_152" depart="68465.72" from="237130850" to="-479358807" fromTaz="fringe-X16Y26" toTaz="fringe-X22Y14" departLane="free" departSpeed="max"/>
    <trip id="hour_19_761" depart="68466.08" from="1073403974" to="287201448" fromTaz="grid-X21Y12" toTaz="fringe-X18Y9" departLane="free" departSpeed="max"/>
    <trip id="hour_19_1353" depart="68466.87" from="185260338" to="275056710" fromTaz="origin-X20Y25" toTaz="destination-X4Y30" departLane="free" departSpeed="max"/>
    <trip id="hour_19_751" depart="68467.30" from="122715732" to="37850228" fromTaz="grid-X21Y11" toTaz="fringe-X7Y0" departLane="free" departSpeed="max"/>
    <trip id="hour_19_321" depart="68467.41" from="10666718" to="375714879" fromTaz="fringe-X19Y23" toTaz="fringe-X18Y26" departLane="free" departSpeed="max"/>
    <trip id="hour_19_1003" depart="68467.57" from="11939530892" to="134105523" fromTaz="grid-X8Y2" toTaz="fringe-X24Y16" departLane="free" departSpeed="max"/>
    <trip id="hour_19_629" depart="68469.06" from="-11939540055" to="275056710" fromTaz="grid-X11Y25" toTaz="destination-X4Y30" departLane="free" departSpeed="max"/>
    <trip id="hour_19_1060" depart="68469.40" from="-71890080" to="-121921459" fromTaz="grid-X8Y3" toTaz="fringe-X22Y11" departLane="free" departSpeed="max"/>
    <trip id="hour_19_1674" depart="68469.85" from="452051337" to="-63961527" fromTaz="origin-X7Y1" toTaz="grid-X23Y14" departLane="free" departSpeed="max"/>
    <trip id="hour_19_1460" depart="68470.04" from="24821181" to="290538999" fromTaz="origin-X4Y30" toTaz="destination-X19Y25" departLane="free" departSpeed="max"/>
    <trip id="hour_19_259" depart="68470.55" from="326780461" to="-11939534800" fromTaz="fringe-X19Y22" toTaz="grid-X24Y15" departLane="free" departSpeed="max"/>
    <trip id="hour_19_1324" depart="68472.35" from="185260338" to="275056710" fromTaz="origin-X20Y25" toTaz="destination-X4Y30" departLane="free" departSpeed="max"/>
    <trip id="hour_19_1636" depart="68472.67" from="452051337" to="307023793" fromTaz="origin-X7Y1" toTaz="fringe-X23Y15" departLane="free" departSpeed="max"/>
    <trip id="hour_19_905" depart="68474.21" from="928911585" to="290538999" fromTaz="grid-X5Y24" toTaz="destination-X19Y25" departLane="free" departSpeed="max"/>
    <trip id="hour_19_947" depart="68474.24" from="-118049220" to="929240359" fromTaz="grid-X6Y19" toTaz="fringe-X7Y28" departLane="free" departSpeed="max"/>
    <trip id="hour_19_1063" depart="68474.95" from="71890079" to="121921459" fromTaz="grid-X8Y3" toTaz="fringe-X22Y11" departLane="free" departSpeed="max"/>
    <trip id="hour_19_1447" depart="68475.00" from="24821181" to="290538999" fromTaz="origin-X4Y30" toTaz="destination-X19Y25" departLane="free" departSpeed="max"/>
    <trip id="hour_19_375" depart="68476.24" from="-143075780" to="275056710" fromTaz="fringe-X20Y21" toTaz="destination-X4Y30" departLane="free" departSpeed="max"/>
    <trip id="hour_19_1390" depart="68476.68" from="24821181" to="290538999" fromTaz="origin-X4Y30" toTaz="destination-X19Y25" departLane="free" departSpeed="max"/>
    <trip id="hour_19_394" depart="68476.69" from="143075776" to="375714879" fromTaz="fringe-X20Y21" toTaz="fringe-X18Y26" departLane="free" departSpeed="max"/>
    <trip id="hour_19_1497" depart="68476.75" from="24821181" to="290538999" fromTaz="origin-X4Y30" toTaz="destination-X19Y25" departLane="free" departSpeed="max"/>
    <trip id="hour_19_473" depart="68476.76" from="307024526" to="4414008" fromTaz="fringe-X23Y15" toTaz="fringe-X19Y10" departLane="free" departSpeed="max"/>
    <trip id="hour_19_1579" depart="68476.88" from="452051337" to="-12968189#1" fromTaz="origin-X7Y1" toTaz="fringe-X20Y7" departLane="free" departSpeed="max"/>
    <trip id="hour_19_1320" depart="68477.22" from="185260338" to="275056710" fromTaz="origin-X20Y25" toTaz="destination-X4Y30" departLane="free" departSpeed="max"/>
    <trip id="hour_19_357" depart="68477.89" from="-143075776" to="290538999" fromTaz="fringe-X20Y21" toTaz="destination-X19Y25" departLane="free" departSpeed="max"/>
    <trip id="hour_19_1187" depart="68478.42" from="185260338" to="275056710" fromTaz="origin-X20Y25" toTaz="destination-X4Y30" departLane="free" departSpeed="max"/>
    <trip id="hour_19_848" depart="68479.23" from="68526138" to="237582244" fromTaz="grid-X4Y11" toTaz="fringe-X1Y12" departLane="free" departSpeed="max"/>
    <trip id="hour_19_56" depart="68480.26" from="164785144" to="-984980755" fromTaz="fringe-X11Y4" toTaz="grid-X5Y7" departLane="free" departSpeed="max"/>
    <trip id="hour_19_1194" depart="68480.52" from="185260338" to="275056710" fromTaz="origin-X20Y25" toTaz="destination-X4Y30" departLane="free" departSpeed="max"/>
    <trip id="hour_19_346" depart="68480.90" from="-185406398" to="5213455" fromTaz="fringe-X1Y22" toTaz="fringe-X7Y28" departLane="free" departSpeed="max"/>
    <trip id="hour_19_1536" depart="68481.53" from="452051337" to="57373256" fromTaz="origin-X7Y1" toTaz="fringe-X18Y9" departLane="free" departSpeed="max"/>
    <trip id="hour_19_1521" depart="68481.55" from="24821181" to="734247285" fromTaz="origin-X4Y30" toTaz="grid-X5Y27" departLane="free" departSpeed="max"/>
    <trip id="hour_19_979" depart="68481.62" from="11939534360" to="-134105523" fromTaz="grid-X7Y2" toTaz="fringe-X24Y16" departLane="free" departSpeed="max"/>
    <trip id="hour_19_94" depart="68481.63" from="326594940" to="275056710" fromTaz="fringe-X16Y26" toTaz="destination-X4Y30" departLane="free" departSpeed="max"/>
    <trip id="hour_19_908" depart="68482.44" from="5663294" to="-134105523" fromTaz="grid-X5Y24" toTaz="fringe-X24Y16" departLane="free" departSpeed="max"/>
    <trip id="hour_19_411" depart="68483.99" from="-12968189#1" to="452051334" fromTaz="fringe-X20Y7" toTaz="destination-X7Y1" departLane="free" departSpeed="max"/>
    <trip id="hour_19_1576" depart="68484.69" from="452051337" to="12968189#1" fromTaz="origin-X7Y1" toTaz="fringe-X20Y7" departLane="free" departSpeed="max"/>
    <trip id="hour_19_332" depart="68484.92" from="326780462" to="5213455" fromTaz="fringe-X19Y23" toTaz="fringe-X7Y28" departLane="free" departSpeed="max"/>
    <trip id="hour_19_833" depart="68486.30" from="-645851407" to="275056710" fromTaz="grid-X3Y27" toTaz="destination-X4Y30" departLane="free" departSpeed="max"/>
    <trip id="hour_19_1210" depart="68487.73" from="185260338" to="275056710" fromTaz="origin-X20Y25" toTaz="destination-X4Y30" departLane="free" departSpeed="max"/>
    <trip id="hour_19_755" depart="68488.31" from="1009757382" to="452051334" fromTaz="grid-X21Y12" toTaz="destination-X7Y1" departLane="free" departSpeed="max"/>
    <trip id="hour_19_246" depart="68488.45" from="326780459" to="143075780" fromTaz="fringe-X19Y22" toTaz="fringe-X20Y21" departLane="free" departSpeed="max"/>
    <trip id="hour_19_173" depart="68488.60" from="326594940" to="-134105523" fromTaz="fringe-X16Y26" toTaz="fringe-X24Y16" departLane="free" departSpeed="max"/>
    <trip id="hour_19_846" depart="68489.14" from="-11939545746" to="958174516" fromTaz="grid-X3Y28" toTaz="fringe-X1Y23" departLane="free" departSpeed="max"/>
    <trip id="hour_19_472" depart="68489.31" from="307023793" to="158346347" fromTaz="fringe-X23Y15" toTaz="fringe-X19Y10" departLane="free" departSpeed="max"/>
    <trip id="hour_19_552" depart="68489.41" from="-40425140" to="275056710" fromTaz="fringe-X4Y29" toTaz="destination-X4Y30" departLane="free" departSpeed="max"/>
    <trip id="hour_19_378" depart="68489.81" from="-143075780" to="275056710" fromTaz="fringe-X20Y21" toTaz="destination-X4Y30" departLane="free" departSpeed="max"/>
    <trip id="hour_19_446" depart="68489.91" from="-479358807" to="5058806" fromTaz="fringe-X22Y14" toTaz="fringe-X18Y9" departLane="free" departSpeed="max"/>
    <trip id="hour_19_613" depart="68490.12" from="-11939531321" to="5213455" fromTaz="grid-X10Y24" toTaz="fringe-X7Y28" departLane="free" departSpeed="max"/>
    <trip id="hour_19_520" depart="68490.40" from="134105523" to="452051334" fromTaz="fringe-X24Y16" toTaz="destination-X7Y1" departLane="free" departSpeed="max"/>
    <trip id="hour_19_194" depart="68490.47" from="150270059" to="158413987" fromTaz="fringe-X16Y26" toTaz="grid-X22Y13" departLane="free" departSpeed="max"/>
    <trip id="hour_19_334" depart="68490.56" from="326780462" to="-326572945" fromTaz="fringe-X19Y23" toTaz="fringe-X7Y28" departLane="free" departSpeed="max"/>
    <trip id="hour_19_1015" depart="68491.96" from="155094215" to="290538999" fromTaz="grid-X8Y3" toTaz="destination-X19Y25" departLane="free" departSpeed="max"/>
    <trip id="hour_19_842" depart="68493.05" from="11939539921" to="275056710" fromTaz="grid-X3Y28" toTaz="destination-X4Y30" departLane="free" departSpeed="max"/>
    <trip id="hour_19_364" depart="68493.17" from="143075780" to="290538999" fromTaz="fringe-X20Y21" toTaz="destination-X19Y25" departLane="free" departSpeed="max"/>
    <trip id="hour_19_659" depart="68493.36" from="-11939549118" to="275056710" fromTaz="grid-X12Y26" toTaz="destination-X4Y30" departLane="free" departSpeed="max"/>