<?xml version="1.0" encoding="UTF-8"?>

<routes xmlns:xsi="http://www.w3.org/2001/XMLSchema-instance" xsi:noNamespaceSchemaLocation="http://sumo.dlr.de/xsd/routes_file.xsd">
    <trip id="hour_22_65" depart="79200.56" from="24711107" to="375714879" fromTaz="fringe-X16Y26" toTaz="fringe-X18Y26" departLane="free" departSpeed="max"/>
    <trip id="hour_22_172" depart="79200.81" from="10666718" to="375714879" fromTaz="fringe-X19Y23" toTaz="fringe-X18Y26" departLane="free" departSpeed="max"/>
    <trip id="hour_22_551" depart="79200.90" from="-158414578" to="57373256" fromTaz="grid-X21Y12" toTaz="fringe-X18Y9" departLane="free" departSpeed="max"/>
    <trip id="hour_22_590" depart="79201.08" from="24542446" to="307024527" fromTaz="grid-X22Y13" toTaz="fringe-X23Y15" departLane="free" departSpeed="max"/>
    <trip id="hour_22_135" depart="79201.15" from="-10666718" to="290538999" fromTaz="fringe-X19Y23" toTaz="destination-X19Y25" departLane="free" departSpeed="max"/>
    <trip id="hour_22_754" depart="79201.28" from="-71736668" to="-24793256" fromTaz="grid-X8Y2" toTaz="fringe-X23Y16" departLane="free" departSpeed="max"/>
    <trip id="hour_22_929" depart="79202.92" from="24821181" to="290538999" fromTaz="origin-X4Y30" toTaz="destination-X19Y25" departLane="free" departSpeed="max"/>
    <trip id="hour_22_437" depart="79204.77" from="-11939532269" to="275056710" fromTaz="grid-X10Y25" toTaz="destination-X4Y30" departLane="free" departSpeed="max"/>
    <trip id="hour_22_267" depart="79206.14" from="479358807" to="364433362" fromTaz="fringe-X22Y14" toTaz="grid-X19Y7" departLane="free" departSpeed="max"/>
    <trip id="hour_22_57" depart="79206.36" from="150270059" to="275056710" fromTaz="fringe-X16Y26" toTaz="destination-X4Y30" departLane="free" departSpeed="max"/>
    <trip id="hour_22_700" depart="79206.37" from="-142676274" to="275056710" fromTaz="grid-X5Y28" toTaz="destination-X4Y30" departLane="free" departSpeed="max"/>
    <trip id="hour_22_426" depart="79206.97" from="11939537277" to="275056710" fromTaz="grid-X10Y24" toTaz="destination-X4Y30" departLane="free" departSpeed="max"/>
    <trip id="hour_22_452" depart="79207.29" from="-11939526250" to="275056710" fromTaz="grid-X11Y26" toTaz="destination-X4Y30" departLane="free" departSpeed="max"/>
    <trip id="hour_22_39" depart="79207.38" from="11939526419" to="290538999" fromTaz="fringe-X16Y26" toTaz="destination-X19Y25" departLane="free" departSpeed="max"/>
    <trip id="hour_22_494" depart="79208.32" from="11939541963" to="158346347" fromTaz="grid-X18Y7" toTaz="fringe-X19Y10" departLane="free" departSpeed="max"/>
    <trip id="hour_22_279" depart="79208.55" from="-24793256" to="275056710" fromTaz="fringe-X23Y16" toTaz="destination-X4Y30" departLane="free" departSpeed="max"/>
    <trip id="hour_22_456" depart="79208.91" from="-314146374" to="275056710" fromTaz="grid-X11Y26" toTaz="destination-X4Y30" departLane="free" departSpeed="max"/>
    <trip id="hour_22_323" depart="79212.86" from="24793256" to="307024526" fromTaz="fringe-X23Y16" toTaz="fringe-X23Y15" departLane="free" departSpeed="max"/>
    <trip id="hour_22_440" depart="79212.98" from="11939525950" to="-52045883" fromTaz="grid-X10Y3" toTaz="fringe-X10Y1" departLane="free" departSpeed="max"/>
    <trip id="hour_22_884" depart="79215.27" from="185260338" to="275056710" fromTaz="origin-X20Y25" toTaz="destination-X4Y30" departLane="free" departSpeed="max"/>
    <trip id="hour_22_876" depart="79215.75" from="185260338" to="275056710" fromTaz="origin-X20Y25" toTaz="destination-X4Y30" departLane="free" departSpeed="max"/>
    <trip id="hour_22_702" depart="79216.06" from="-734247285" to="275056710" fromTaz="grid-X5Y28" toTaz="destination-X4Y30" departLane="free" departSpeed="max"/>
    <trip id="hour_22_810" depart="79217.46" from="71890080" to="134105523" fromTaz="grid-X8Y3" toTaz="fringe-X24Y16" departLane="free" departSpeed="max"/>
    <trip id="hour_22_100" depart="79217.50" from="57373256" to="452051334" fromTaz="fringe-X18Y9" toTaz="destination-X7Y1" departLane="free" departSpeed="max"/>
    <trip id="hour_22_154" depart="79217.81" from="-10666718" to="275056710" fromTaz="fringe-X19Y23" toTaz="destination-X4Y30" departLane="free" departSpeed="max"/>
    <trip id="hour_22_167" depart="79217.83" from="326780462" to="-375714879" fromTaz="fringe-X19Y23" toTaz="fringe-X18Y26" departLane="free" departSpeed="max"/>
    <trip id="hour_22_23" depart="79218.13" from="164785142" to="71890080" fromTaz="fringe-X11Y4" toTaz="grid-X8Y3" departLane="free" departSpeed="max"/>
    <trip id="hour_22_66" depart="79218.68" from="326594940" to="375714879" fromTaz="fringe-X16Y26" toTaz="fringe-X18Y26" departLane="free" departSpeed="max"/>
    <trip id="hour_22_24" depart="79219.60" from="326594940" to="290538999" fromTaz="fringe-X16Y26" toTaz="destination-X19Y25" departLane="free" departSpeed="max"/>
    <trip id="hour_22_956" depart="79219.64" from="24821181" to="290538999" fromTaz="origin-X4Y30" toTaz="destination-X19Y25" departLane="free" departSpeed="max"/>
    <trip id="hour_22_614" depart="79220.47" from="11939535752" to="275056710" fromTaz="grid-X23Y14" toTaz="destination-X4Y30" departLane="free" departSpeed="max"/>
    <trip id="hour_22_905" depart="79222.28" from="185260338" to="275056710" fromTaz="origin-X20Y25" toTaz="destination-X4Y30" departLane="free" departSpeed="max"/>
    <trip id="hour_22_776" depart="79224.58" from="155094219" to="52045883" fromTaz="grid-X8Y3" toTaz="fringe-X10Y1" departLane="free" departSpeed="max"/>
    <trip id="hour_22_518" depart="79224.98" from="400567504" to="4414008" fromTaz="grid-X20Y7" toTaz="fringe-X19Y10" departLane="free" departSpeed="max"/>
    <trip id="hour_22_18" depart="79225.67" from="87194342" to="11939526296" fromTaz="fringe-X11Y4" toTaz="grid-X4Y10" departLane="free" departSpeed="max"/>
    <trip id="hour_22_705" depart="79226.00" from="11939549578" to="654765962" fromTaz="grid-X6Y17" toTaz="fringe-X16Y17" departLane="free" departSpeed="max"/>
    <trip id="hour_22_268" depart="79226.51" from="-479358807" to="-400567504" fromTaz="fringe-X22Y14" toTaz="grid-X20Y7" departLane="free" departSpeed="max"/>
    <trip id="hour_22_1036" depart="79226.98" from="24821181" to="-11939530959" fromTaz="origin-X4Y30" toTaz="grid-X5Y20" departLane="free" departSpeed="max"/>
    <trip id="hour_22_1106" depart="79228.78" from="452051337" to="11939544486" fromTaz="origin-X7Y1" toTaz="grid-X18Y7" departLane="free" departSpeed="max"/>
    <trip id="hour_22_972" depart="79229.50" from="24821181" to="290538999" fromTaz="origin-X4Y30" toTaz="destination-X19Y25" departLane="free" departSpeed="max"/>
    <trip id="hour_22_78" depart="79230.86" from="237130850" to="-375714879" fromTaz="fringe-X16Y26" toTaz="fringe-X18Y26" departLane="free" departSpeed="max"/>
    <trip id="hour_22_215" depart="79231.69" from="-143075780" to="8896380" fromTaz="fringe-X20Y21" toTaz="fringe-X23Y15" departLane="free" departSpeed="max"/>
    <trip id="hour_22_844" depart="79232.26" from="185260338" to="275056710" fromTaz="origin-X20Y25" toTaz="destination-X4Y30" departLane="free" departSpeed="max"/>
    <trip id="hour_22_127" depart="79233.22" from="10666718" to="290538999" fromTaz="fringe-X19Y23" toTaz="destination-X19Y25" departLane="free" departSpeed="max"/>
    <trip id="hour_22_202" depart="79233.49" from="-958174516" to="275056710" fromTaz="fringe-X1Y23" toTaz="destination-X4Y30" departLane="free" departSpeed="max"/>
    <trip id="hour_22_566" depart="79235.85" from="133951163" to="452051334" fromTaz="grid-X22Y12" toTaz="destination-X7Y1" departLane="free" departSpeed="max"/>
    <trip id="hour_22_20" depart="79235.86" from="164785142" to="-125028094" fromTaz="fringe-X11Y4" toTaz="grid-X5Y6" departLane="free" departSpeed="max"/>
    <trip id="hour_22_1093" depart="79236.35" from="452051337" to="307024527" fromTaz="origin-X7Y1" toTaz="fringe-X23Y15" departLane="free" departSpeed="max"/>
    <trip id="hour_22_182" depart="79236.86" from="326780462" to="375714879" fromTaz="fringe-X19Y23" toTaz="fringe-X18Y26" departLane="free" departSpeed="max"/>
    <trip id="hour_22_668" depart="79237.58" from="-11939550493" to="275056710" fromTaz="grid-X3Y27" toTaz="destination-X4Y30" departLane="free" departSpeed="max"/>
    <trip id="hour_22_434" depart="79237.74" from="11939532269" to="275056710" fromTaz="grid-X10Y25" toTaz="destination-X4Y30" departLane="free" departSpeed="max"/>
    <trip id="hour_22_858" depart="79239.29" from="185260338" to="275056710" fromTaz="origin-X20Y25" toTaz="destination-X4Y30" departLane="free" departSpeed="max"/>
    <trip id="hour_22_195" depart="79239.30" from="185406398" to="11939532325" fromTaz="fringe-X1Y22" toTaz="grid-X4Y23" departLane="free" departSpeed="max"/>
    <trip id="hour_22_188" depart="79239.70" from="10666718" to="-375714879" fromTaz="fringe-X19Y23" toTaz="fringe-X18Y26" departLane="free" departSpeed="max"/>
    <trip id="hour_22_500" depart="79240.26" from="695002987" to="452051334" fromTaz="grid-X19Y8" toTaz="destination-X7Y1" departLane="free" departSpeed="max"/>
    <trip id="hour_22_37" depart="79241.55" from="24711105" to="290538999" fromTaz="fringe-X16Y26" toTaz="destination-X19Y25" departLane="free" departSpeed="max"/>
    <trip id="hour_22_314" depart="79241.59" from="24793256" to="-12968189#1" fromTaz="fringe-X23Y16" toTaz="fringe-X20Y7" departLane="free" departSpeed="max"/>
    <trip id="hour_22_71" depart="79242.16" from="24711107" to="375714879" fromTaz="fringe-X16Y26" toTaz="fringe-X18Y26" departLane="free" departSpeed="max"/>
    <trip id="hour_22_505" depart="79242.93" from="11939529381" to="375714879" fromTaz="grid-X19Y9" toTaz="fringe-X18Y26" departLane="free" departSpeed="max"/>
    <trip id="hour_22_1010" depart="79243.33" from="24821181" to="290538999" fromTaz="origin-X4Y30" toTaz="destination-X19Y25" departLane="free" departSpeed="max"/>
    <trip id="hour_22_290" depart="79243.83" from="-24793256" to="375714879" fromTaz="fringe-X23Y16" toTaz="fringe-X18Y26" departLane="free" departSpeed="max"/>
    <trip id="hour_22_1050" depart="79244.80" from="452051337" to="290538999" fromTaz="origin-X7Y1" toTaz="destination-X19Y25" departLane="free" departSpeed="max"/>
    <trip id="hour_22_602" depart="79246.54" from="11939531288" to="-375714879" fromTaz="grid-X22Y14" toTaz="fringe-X18Y26" departLane="free" departSpeed="max"/>
    <trip id="hour_22_641" depart="79247.95" from="-5235459" to="307023793" fromTaz="grid-X23Y16" toTaz="fringe-X23Y15" departLane="free" departSpeed="max"/>
    <trip id="hour_22_563" depart="79248.71" from="-454709412" to="4414008" fromTaz="grid-X22Y11" toTaz="fringe-X19Y10" departLane="free" departSpeed="max"/>
    <trip id="hour_22_489" depart="79248.84" from="104741367" to="452051334" fromTaz="grid-X17Y7" toTaz="destination-X7Y1" departLane="free" departSpeed="max"/>
    <trip id="hour_22_546" depart="79252.35" from="11939543535" to="-52045883" fromTaz="grid-X21Y12" toTaz="fringe-X10Y1" departLane="free" departSpeed="max"/>
    <trip id="hour_22_11" depart="79252.36" from="87194342" to="-52045883" fromTaz="fringe-X11Y4" toTaz="fringe-X10Y1" departLane="free" departSpeed="max"/>
    <trip id="hour_22_587" depart="79253.10" from="11939535751" to="143075776" fromTaz="grid-X22Y13" toTaz="fringe-X20Y21" departLane="free" departSpeed="max"/>
    <trip id="hour_22_391" depart="79254.60" from="326572945" to="275056710" fromTaz="fringe-X7Y28" toTaz="destination-X4Y30" departLane="free" departSpeed="max"/>
    <trip id="hour_22_762" depart="79255.09" from="11939532048" to="40425140" fromTaz="grid-X8Y2" toTaz="fringe-X4Y29" departLane="free" departSpeed="max"/>
    <trip id="hour_22_1092" depart="79257.42" from="452051337" to="479358807" fromTaz="origin-X7Y1" toTaz="fringe-X22Y14" departLane="free" departSpeed="max"/>
    <trip id="hour_22_517" depart="79258.21" from="-695002984" to="452051334" fromTaz="grid-X20Y7" toTaz="destination-X7Y1" departLane="free" departSpeed="max"/>
    <trip id="hour_22_814" depart="79259.00" from="-453135924" to="452051334" fromTaz="grid-X9Y2" toTaz="destination-X7Y1" departLane="free" departSpeed="max"/>
    <trip id="hour_22_868" depart="79259.07" from="185260338" to="275056710" fromTaz="origin-X20Y25" toTaz="destination-X4Y30" departLane="free" departSpeed="max"/>
    <trip id="hour_22_1008" depart="79259.86" from="24821181" to="290538999" fromTaz="origin-X4Y30" toTaz="destination-X19Y25" departLane="free" departSpeed="max"/>
    <trip id="hour_22_643" depart="79261.49" from="138757420" to="290538999" fromTaz="grid-X24Y14" toTaz="destination-X19Y25" departLane="free" departSpeed="max"/>
    <trip id="hour_22_779" depart="79262.61" from="-155094219" to="87194342" fromTaz="grid-X8Y3" toTaz="fringe-X11Y4" departLane="free" departSpeed="max"/>
    <trip id="hour_22_980" depart="79262.93" from="24821181" to="290538999" fromTaz="origin-X4Y30" toTaz="destination-X19Y25" departLane="free" departSpeed="max"/>
    <trip id="hour_22_1117" depart="79263.80" from="452051337" to="133951992" fromTaz="origin-X7Y1" toTaz="grid-X21Y12" departLane="free" departSpeed="max"/>
    <trip id="hour_22_1041" depart="79267.57" from="452051337" to="290538999" fromTaz="origin-X7Y1" toTaz="destination-X19Y25" departLane="free" departSpeed="max"/>
    <trip id="hour_22_77" depart="79267.68" from="237130850" to="375714879" fromTaz="fringe-X16Y26" toTaz="fringe-X18Y26" departLane="free" departSpeed="max"/>
    <trip id="hour_22_611" depart="79269.06" from="-11939535751" to="290538999" fromTaz="grid-X23Y14" toTaz="destination-X19Y25" departLane="free" departSpeed="max"/>
    <trip id="hour_22_497" depart="79270.72" from="171007703" to="158347370" fromTaz="grid-X19Y7" toTaz="fringe-X19Y10" departLane="free" departSpeed="max"/>
    <trip id="hour_22_865" depart="79272.84" from="185260338" to="275056710" fromTaz="origin-X20Y25" toTaz="destination-X4Y30" departLane="free" departSpeed="max"/>
    <trip id="hour_22_892" depart="79272.86" from="185260338" to="275056710" fromTaz="origin-X20Y25" toTaz="destination-X4Y30" departLane="free" departSpeed="max"/>
    <trip id="hour_22_860" depart="79275.16" from="185260338" to="275056710" fromTaz="origin-X20Y25" toTaz="destination-X4Y30" departLane="free" departSpeed="max"/>
    <trip id="hour_22_788" depart="79275.73" from="71890080" to="375714879" fromTaz="grid-X8Y3" toTaz="fringe-X18Y26" departLane="free" departSpeed="max"/>
    <trip id="hour_22_588" depart="79276.05" from="-11939531801" to="12968189#1" fromTaz="grid-X22Y13" toTaz="fringe-X20Y7" departLane="free" departSpeed="max"/>
    <trip id="hour_22_368" depart="79276.24" from="-40425140" to="275056710" fromTaz="fringe-X4Y29" toTaz="destination-X4Y30" departLane="free" departSpeed="max"/>
    <trip id="hour_22_385" depart="79276.69" from="5213455" to="275056710" fromTaz="fringe-X7Y28" toTaz="destination-X4Y30" departLane="free" departSpeed="max"/>
    <trip id="hour_22_351" depart="79277.89" from="134105523" to="375714879" fromTaz="fringe-X24Y16" toTaz="fringe-X18Y26" departLane="free" departSpeed="max"/>
    <trip id="hour_22_449" depart="79278.17" from="-11939540056" to="958174516" fromTaz="grid-X11Y25" toTaz="fringe-X1Y23" departLane="free" departSpeed="max"/>
    <trip id="hour_22_274" depart="79279.84" from="-24793256" to="290538999" fromTaz="fringe-X23Y16" toTaz="destination-X19Y25" departLane="free" departSpeed="max"/>
    <trip id="hour_22_931" depart="79281.77" from="24821181" to="290538999" fromTaz="origin-X4Y30" toTaz="destination-X19Y25" departLane="free" departSpeed="max"/>
    <trip id="hour_22_329" depart="79281.99" from="24793256" to="307024526" fromTaz="fringe-X23Y16" toTaz="fringe-X23Y15" departLane="free" departSpeed="max"/>
    <trip id="hour_22_49" depart="79282.19" from="326594940" to="290538999" fromTaz="fringe-X16Y26" toTaz="destination-X19Y25" departLane="free" departSpeed="max"/>
    <trip id="hour_22_887" depart="79283.17" from="185260338" to="275056710" fromTaz="origin-X20Y25" toTaz="destination-X4Y30" departLane="free" departSpeed="max"/>
    <trip id="hour_22_1026" depart="79283.20" from="24821181" to="290538999" fromTaz="origin-X4Y30" toTaz="destination-X19Y25" departLane="free" departSpeed="max"/>
    <trip id="hour_22_964" depart="79283.45" from="24821181" to="290538999" fromTaz="origin-X4Y30" toTaz="destination-X19Y25" departLane="free" departSpeed="max"/>
    <trip id="hour_22_27" depart="79283.60" from="150270059" to="290538999" fromTaz="fringe-X16Y26" toTaz="destination-X19Y25" departLane="free" departSpeed="max"/>
    <trip id="hour_22_319" depart="79284.92" from="-24793256" to="479358807" fromTaz="fringe-X23Y16" toTaz="fringe-X22Y14" departLane="free" departSpeed="max"/>
    <trip id="hour_22_1014" depart="79285.35" from="24821181" to="290538999" fromTaz="origin-X4Y30" toTaz="destination-X19Y25" departLane="free" departSpeed="max"/>
    <trip id="hour_22_666" depart="79286.62" from="158817487" to="275056710" fromTaz="grid-X3Y26" toTaz="destination-X4Y30" departLane="free" departSpeed="max"/>
    <trip id="hour_22_917" depart="79287.63" from="185260338" to="375714879" fromTaz="origin-X20Y25" toTaz="fringe-X18Y26" departLane="free" departSpeed="max"/>
    <trip id="hour_22_446" depart="79288.09" from="-11939540056" to="275056710" fromTaz="grid-X11Y25" toTaz="destination-X4Y30" departLane="free" departSpeed="max"/>
    <trip id="hour_22_174" depart="79288.60" from="-10666718" to="375714879" fromTaz="fringe-X19Y23" toTaz="fringe-X18Y26" departLane="free" departSpeed="max"/>
    <trip id="hour_22_685" depart="79288.88" from="-199353436" to="275056710" fromTaz="grid-X4Y28" toTaz="destination-X4Y30" departLane="free" departSpeed="max"/>
    <trip id="hour_22_90" depart="79289.60" from="24711107" to="307024527" fromTaz="fringe-X16Y26" toTaz="fringe-X23Y15" departLane="free" departSpeed="max"/>
    <trip id="hour_22_371" depart="79289.81" from="-40425140" to="275056710" fromTaz="fringe-X4Y29" toTaz="destination-X4Y30" departLane="free" departSpeed="max"/>
    <trip id="hour_22_435" depart="79289.91" from="11939532464" to="275056710" fromTaz="grid-X10Y25" toTaz="destination-X4Y30" departLane="free" departSpeed="max"/>
    <trip id="hour_22_509" depart="79290.40" from="11939538898" to="452051334" fromTaz="grid-X20Y10" toTaz="destination-X7Y1" departLane="free" departSpeed="max"/>
    <trip id="hour_22_321" depart="79290.56" from="-24793256" to="307024527" fromTaz="fringe-X23Y16" toTaz="fringe-X23Y15" departLane="free" departSpeed="max"/>
    <trip id="hour_22_768" depart="79292.93" from="-155094219" to="290538999" fromTaz="grid-X8Y3" toTaz="destination-X19Y25" departLane="free" departSpeed="max"/>
    <trip id="hour_22_820" depart="79293.05" from="11939524507" to="275056710" fromTaz="grid-X9Y22" toTaz="destination-X4Y30" departLane="free" departSpeed="max"/>
    <trip id="hour_22_357" depart="79293.17" from="40425140" to="275056710" fromTaz="fringe-X4Y29" toTaz="destination-X4Y30" departLane="free" departSpeed="max"/>
    <trip id="hour_22_1079" depart="79293.20" from="452051337" to="12968189#1" fromTaz="origin-X7Y1" toTaz="fringe-X20Y7" departLane="free" departSpeed="max"/>
    <trip id="hour_22_640" depart="79293.36" from="-11939526842" to="-12968189#1" fromTaz="grid-X23Y16" toTaz="fringe-X20Y7" departLane="free" departSpeed="max"/>
    <trip id="hour_22_742" depart="79294.55" from="316414576" to="-121921459" fromTaz="grid-X8Y2" toTaz="fringe-X22Y11" departLane="free" departSpeed="max"/>
    <trip id="hour_22_670" depart="79294.86" from="11939525729" to="275056710" fromTaz="grid-X3Y27" toTaz="destination-X4Y30" departLane="free" departSpeed="max"/>
    <trip id="hour_22_793" depart="79295.19" from="-71800112" to="158347370" fromTaz="grid-X8Y3" toTaz="fringe-X19Y10" departLane="free" departSpeed="max"/>
    <trip id="hour_22_339" depart="79296.24" from="-24793256" to="171007703" fromTaz="fringe-X23Y16" toTaz="grid-X19Y7" departLane="free" departSpeed="max"/>
    <trip id="hour_22_408" depart="79297.21" from="-326572945" to="275056710" fromTaz="fringe-X7Y28" toTaz="destination-X4Y30" departLane="free" departSpeed="max"/>
    <trip id="hour_22_348" depart="79297.67" from="24793256" to="11939541424" fromTaz="fringe-X23Y16" toTaz="grid-X5Y5" departLane="free" departSpeed="max"/>
    <trip id="hour_22_19" depart="79298.13" from="87194347" to="-366950474" fromTaz="fringe-X11Y4" toTaz="grid-X5Y4" departLane="free" departSpeed="max"/>
    <trip id="hour_22_713" depart="79298.80" from="-11939534361" to="290538999" fromTaz="grid-X7Y2" toTaz="destination-X19Y25" departLane="free" departSpeed="max"/>
    <trip id="hour_22_778" depart="79299.14" from="155094219" to="164785144" fromTaz="grid-X8Y3" toTaz="fringe-X11Y4" departLane="free" departSpeed="max"/>
    <trip id="hour_22_808" depart="79299.77" from="987011928" to="-24793256" fromTaz="grid-X8Y3" toTaz="fringe-X23Y16" departLane="free" departSpeed="max"/>
    <trip id="hour_22_350" depart="79299.88" from="24793256" to="11939538156" fromTaz="fringe-X23Y16" toTaz="grid-X7Y1" departLane="free" departSpeed="max"/>
    <trip id="hour_22_1049" depart="79301.08" from="452051337" to="290538999" fromTaz="origin-X7Y1" toTaz="destination-X19Y25" departLane="free" departSpeed="max"/>
    <trip id="hour_22_40" depart="79301.67" from="326594940" to="290538999" fromTaz="fringe-X16Y26" toTaz="destination-X19Y25" departLane="free" departSpeed="max"/>
    <trip id="hour_22_578" depart="79302.58" from="313240132" to="275056710" fromTaz="grid-X22Y13" toTaz="destination-X4Y30" departLane="free" departSpeed="max"/>
    <trip id="hour_22_241" depart="79302.72" from="-121921459" to="287201448" fromTaz="fringe-X22Y11" toTaz="fringe-X18Y9" departLane="free" departSpeed="max"/>
    <trip id="hour_22_1019" depart="79304.56" from="24821181" to="290538999" fromTaz="origin-X4Y30" toTaz="destination-X19Y25" departLane="free" departSpeed="max"/>
    <trip id="hour_22_427" depart="79305.18" from="11939531321" to="275056710" fromTaz="grid-X10Y24" toTaz="destination-X4Y30" departLane="free" departSpeed="max"/>
    <trip id="hour_22_581" depart="79305.56" from="-11939533085" to="-52045883" fromTaz="grid-X22Y13" toTaz="fringe-X10Y1" departLane="free" departSpeed="max"/>
    <trip id="hour_22_825" depart="79305.78" from="46968482" to="275056710" fromTaz="grid-X9Y23" toTaz="destination-X4Y30" departLane="free" departSpeed="max"/>
    <trip id="hour_22_276" depart="79306.03" from="-24793256" to="290538999" fromTaz="fringe-X23Y16" toTaz="destination-X19Y25" departLane="free" departSpeed="max"/>
    <trip id="hour_22_571" depart="79306.40" from="-4493192" to="57373256" fromTaz="grid-X22Y12" toTaz="fringe-X18Y9" departLane="free" departSpeed="max"/>
    <trip id="hour_22_214" depart="79306.83" from="143075780" to="307024527" fromTaz="fringe-X20Y21" toTaz="fringe-X23Y15" departLane="free" departSpeed="max"/>
    <trip id="hour_22_341" depart="79306.94" from="24793256" to="-11939549659" fromTaz="fringe-X23Y16" toTaz="grid-X20Y7" departLane="free" departSpeed="max"/>
    <trip id="hour_22_258" depart="79307.53" from="-479358807" to="158346014" fromTaz="fringe-X22Y14" toTaz="fringe-X19Y10" departLane="free" departSpeed="max"/>
    <trip id="hour_22_259" depart="79308.11" from="-479358807" to="143075780" fromTaz="fringe-X22Y14" toTaz="fringe-X20Y21" departLane="free" departSpeed="max"/>
    <trip id="hour_22_48" depart="79308.52" from="11939526419" to="290538999" fromTaz="fringe-X16Y26" toTaz="destination-X19Y25" departLane="free" departSpeed="max"/>
    <trip id="hour_22_726" depart="79309.91" from="-987109374" to="290538999" fromTaz="grid-X8Y2" toTaz="destination-X19Y25" departLane="free" departSpeed="max"/>
    <trip id="hour_22_721" depart="79310.09" from="11939534360" to="-12968189#1" fromTaz="grid-X7Y2" toTaz="fringe-X20Y7" departLane="free" departSpeed="max"/>
    <trip id="hour_22_284" depart="79310.10" from="-24793256" to="452051334" fromTaz="fringe-X23Y16" toTaz="destination-X7Y1" departLane="free" departSpeed="max"/>
    <trip id="hour_22_807" depart="79310.14" from="-155094219" to="307024526" fromTaz="grid-X8Y3" toTaz="fringe-X23Y15" departLane="free" departSpeed="max"/>
    <trip id="hour_22_940" depart="79310.31" from="24821181" to="290538999" fromTaz="origin-X4Y30" toTaz="destination-X19Y25" departLane="free" departSpeed="max"/>
    <trip id="hour_22_813" depart="79310.44" from="290306725" to="290538999" fromTaz="grid-X9Y2" toTaz="destination-X19Y25" departLane="free" departSpeed="max"/>
    <trip id="hour_22_787" depart="79310.61" from="155094219" to="375714879" fromTaz="grid-X8Y3" toTaz="fringe-X18Y26" departLane="free" departSpeed="max"/>
    <trip id="hour_22_816" depart="79311.95" from="84803280" to="164785142" fromTaz="grid-X9Y2" toTaz="fringe-X11Y4" departLane="free" departSpeed="max"/>
    <trip id="hour_22_1056" depart="79314.32" from="452051337" to="-52045883" fromTaz="origin-X7Y1" toTaz="fringe-X10Y1" departLane="free" departSpeed="max"/>
    <trip id="hour_22_657" depart="79314.49" from="-1173073765" to="275056710" fromTaz="grid-X2Y26" toTaz="destination-X4Y30" departLane="free" departSpeed="max"/>
    <trip id="hour_22_318" depart="79314.89" from="-24793256" to="479358807" fromTaz="fringe-X23Y16" toTaz="fringe-X22Y14" departLane="free" departSpeed="max"/>
    <trip id="hour_22_99" depart="79315.96" from="5058806" to="452051334" fromTaz="fringe-X18Y9" toTaz="destination-X7Y1" departLane="free" departSpeed="max"/>
    <trip id="hour_22_907" depart="79317.82" from="185260338" to="275056710" fromTaz="origin-X20Y25" toTaz="destination-X4Y30" departLane="free" departSpeed="max"/>
    <trip id="hour_22_545" depart="79322.29" from="-11939543535" to="-52045883" fromTaz="grid-X21Y12" toTaz="fringe-X10Y1" departLane="free" departSpeed="max"/>
    <trip id="hour_22_775" depart="79322.89" from="155094215" to="452051334" fromTaz="grid-X8Y3" toTaz="destination-X7Y1" departLane="free" departSpeed="max"/>
    <trip id="hour_22_536" depart="79323.08" from="-331714238" to="237582244" fromTaz="grid-X21Y11" toTaz="fringe-X1Y12" departLane="free" departSpeed="max"/>
    <trip id="hour_22_709" depart="79324.56" from="11939531620" to="5213455" fromTaz="grid-X6Y21" toTaz="fringe-X7Y28" departLane="free" departSpeed="max"/>
    <trip id="hour_22_835" depart="79325.00" from="185260338" to="275056710" fromTaz="origin-X20Y25" toTaz="destination-X4Y30" departLane="free" departSpeed="max"/>
    <trip id="hour_22_146" depart="79326.31" from="-10666718" to="275056710" fromTaz="fringe-X19Y23" toTaz="destination-X4Y30" departLane="free" departSpeed="max"/>
    <trip id="hour_22_484" depart="79326.53" from="11939547107" to="452051334" fromTaz="grid-X16Y6" toTaz="destination-X7Y1" departLane="free" departSpeed="max"/>
    <trip id="hour_22_126" depart="79326.77" from="-10666718" to="290538999" fromTaz="fringe-X19Y23" toTaz="destination-X19Y25" departLane="free" departSpeed="max"/>
    <trip id="hour_22_772" depart="79327.28" from="71890079" to="290538999" fromTaz="grid-X8Y3" toTaz="destination-X19Y25" departLane="free" departSpeed="max"/>
    <trip id="hour_22_878" depart="79327.61" from="185260338" to="275056710" fromTaz="origin-X20Y25" toTaz="destination-X4Y30" departLane="free" departSpeed="max"/>
    <trip id="hour_22_984" depart="79327.64" from="24821181" to="290538999" fromTaz="origin-X4Y30" toTaz="destination-X19Y25" departLane="free" departSpeed="max"/>
    <trip id="hour_22_412" depart="79328.26" from="929240359" to="-958174516" fromTaz="fringe-X7Y28" toTaz="fringe-X1Y23" departLane="free" departSpeed="max"/>
    <trip id="hour_22_671" depart="79328.44" from="11939539920" to="275056710" fromTaz="grid-X3Y27" toTaz="destination-X4Y30" departLane="free" departSpeed="max"/>
    <trip id="hour_22_841" depart="79330.52" from="185260338" to="275056710" fromTaz="origin-X20Y25" toTaz="destination-X4Y30" departLane="free" departSpeed="max"/>
    <trip id="hour_22_1040" depart="79331.67" from="452051337" to="290538999" fromTaz="origin-X7Y1" toTaz="destination-X19Y25" departLane="free" departSpeed="max"/>
    <trip id="hour_22_476" depart="79332.34" from="-247882786" to="-52045883" fromTaz="grid-X13Y5" toTaz="fringe-X10Y1" departLane="free" departSpeed="max"/>
    <trip id="hour_22_470" depart="79332.74" from="-173454513" to="275056710" fromTaz="grid-X12Y26" toTaz="destination-X4Y30" departLane="free" departSpeed="max"/>
    <trip id="hour_22_686" depart="79332.90" from="11939523881" to="275056710" fromTaz="grid-X4Y28" toTaz="destination-X4Y30" departLane="free" departSpeed="max"/>
    <trip id="hour_22_399" depart="79333.71" from="326572941" to="275056710" fromTaz="fringe-X7Y28" toTaz="destination-X4Y30" departLane="free" departSpeed="max"/>
    <trip id="hour_22_87" depart="79334.92" from="150270059" to="8896380" fromTaz="fringe-X16Y26" toTaz="fringe-X23Y15" departLane="free" departSpeed="max"/>
    <trip id="hour_22_1060" depart="79335.95" from="452051337" to="164785142" fromTaz="origin-X7Y1" toTaz="fringe-X11Y4" departLane="free" departSpeed="max"/>
    <trip id="hour_22_411" depart="79336.53" from="154716118" to="958174516" fromTaz="fringe-X7Y28" toTaz="fringe-X1Y23" departLane="free" departSpeed="max"/>
    <trip id="hour_22_177" depart="79336.66" from="10666718" to="-375714879" fromTaz="fringe-X19Y23" toTaz="fringe-X18Y26" departLane="free" departSpeed="max"/>
    <trip id="hour_22_648" depart="79337.25" from="-11939539218" to="290538999" fromTaz="grid-X24Y15" toTaz="destination-X19Y25" departLane="free" departSpeed="max"/>
    <trip id="hour_22_952" depart="79337.34" from="24821181" to="290538999" fromTaz="origin-X4Y30" toTaz="destination-X19Y25" departLane="free" departSpeed="max"/>
    <trip id="hour_22_254" depart="79337.39" from="-479358807" to="5058806" fromTaz="fringe-X22Y14" toTaz="fringe-X18Y9" departLane="free" departSpeed="max"/>
    <trip id="hour_22_985" depart="79337.98" from="24821181" to="290538999" fromTaz="origin-X4Y30" toTaz="destination-X19Y25" departLane="free" departSpeed="max"/>