<?xml version="1.0" encoding="UTF-8"?>

<routes xmlns:xsi="http://www.w3.org/2001/XMLSchema-instance" xsi:noNamespaceSchemaLocation="http://sumo.dlr.de/xsd/routes_file.xsd">
    <trip id="hour_9_57" depart="32400.79" from="164785142" to="287201448" fromTaz="fringe-X11Y4" toTaz="fringe-X18Y9" departLane="free" departSpeed="max"/>
    <trip id="hour_9_166" depart="32400.81" from="150270059" to="452051334" fromTaz="fringe-X16Y26" toTaz="destination-X7Y1" departLane="free" departSpeed="max"/>
    <trip id="hour_9_2459" depart="32400.90" from="24821181" to="290538999" fromTaz="origin-X4Y30" toTaz="destination-X19Y25" departLane="free" departSpeed="max"/>
    <trip id="hour_9_2237" depart="32401.24" from="185260338" to="275056710" fromTaz="origin-X20Y25" toTaz="destination-X4Y30" departLane="free" departSpeed="max"/>
    <trip id="hour_9_1629" depart="32401.26" from="-11939534155" to="452051334" fromTaz="grid-X22Y13" toTaz="destination-X7Y1" departLane="free" departSpeed="max"/>
    <trip id="hour_9_824" depart="32401.28" from="-12968189#1" to="11939549023" fromTaz="fringe-X20Y7" toTaz="grid-X24Y14" departLane="free" departSpeed="max"/>
    <trip id="hour_9_1663" depart="32401.55" from="40192684" to="275056710" fromTaz="grid-X2Y14" toTaz="destination-X4Y30" departLane="free" departSpeed="max"/>
    <trip id="hour_9_985" depart="32402.92" from="-134105523" to="11939525710" fromTaz="fringe-X24Y16" toTaz="grid-X22Y14" departLane="free" departSpeed="max"/>
    <trip id="hour_9_713" depart="32403.08" from="-143075776" to="24711107" fromTaz="fringe-X20Y21" toTaz="fringe-X16Y26" departLane="free" departSpeed="max"/>
    <trip id="hour_9_634" depart="32403.14" from="958174516" to="275056710" fromTaz="fringe-X1Y23" toTaz="destination-X4Y30" departLane="free" departSpeed="max"/>
    <trip id="hour_9_1374" depart="32403.53" from="173454513" to="275056710" fromTaz="grid-X12Y26" toTaz="destination-X4Y30" departLane="free" departSpeed="max"/>
    <trip id="hour_9_1511" depart="32404.33" from="-11939523819" to="452051334" fromTaz="grid-X18Y7" toTaz="destination-X7Y1" departLane="free" departSpeed="max"/>
    <trip id="hour_9_1342" depart="32404.55" from="11939525443" to="121921459" fromTaz="grid-X11Y3" toTaz="fringe-X22Y11" departLane="free" departSpeed="max"/>
    <trip id="hour_9_771" depart="32405.00" from="-143075780" to="10666718" fromTaz="fringe-X20Y21" toTaz="fringe-X19Y23" departLane="free" departSpeed="max"/>
    <trip id="hour_9_1904" depart="32405.34" from="-43846138" to="275056710" fromTaz="grid-X8Y2" toTaz="destination-X4Y30" departLane="free" departSpeed="max"/>
    <trip id="hour_9_2522" depart="32405.67" from="24821181" to="290538999" fromTaz="origin-X4Y30" toTaz="destination-X19Y25" departLane="free" departSpeed="max"/>
    <trip id="hour_9_2415" depart="32406.09" from="24821181" to="290538999" fromTaz="origin-X4Y30" toTaz="destination-X19Y25" departLane="free" departSpeed="max"/>
    <trip id="hour_9_1649" depart="32406.35" from="132809544" to="375714879" fromTaz="grid-X23Y16" toTaz="fringe-X18Y26" departLane="free" departSpeed="max"/>
    <trip id="hour_9_2425" depart="32407.37" from="24821181" to="290538999" fromTaz="origin-X4Y30" toTaz="destination-X19Y25" departLane="free" departSpeed="max"/>
    <trip id="hour_9_40" depart="32407.38" from="87194342" to="452051334" fromTaz="fringe-X11Y4" toTaz="destination-X7Y1" departLane="free" departSpeed="max"/>
    <trip id="hour_9_2645" depart="32407.43" from="24821181" to="290538999" fromTaz="origin-X4Y30" toTaz="destination-X19Y25" departLane="free" departSpeed="max"/>
    <trip id="hour_9_538" depart="32408.32" from="-10666718" to="275056710" fromTaz="fringe-X19Y23" toTaz="destination-X4Y30" departLane="free" departSpeed="max"/>
    <trip id="hour_9_1790" depart="32408.44" from="-11939526073#1" to="275056710" fromTaz="grid-X5Y19" toTaz="destination-X4Y30" departLane="free" departSpeed="max"/>
    <trip id="hour_9_493" depart="32408.91" from="158347370" to="-375714879" fromTaz="fringe-X19Y10" toTaz="fringe-X18Y26" departLane="free" departSpeed="max"/>
    <trip id="hour_9_1827" depart="32409.42" from="199353433" to="237582244" fromTaz="grid-X5Y27" toTaz="fringe-X1Y12" departLane="free" departSpeed="max"/>
    <trip id="hour_9_1991" depart="32410.87" from="-987011928" to="479358807" fromTaz="grid-X8Y3" toTaz="fringe-X22Y14" departLane="free" departSpeed="max"/>
    <trip id="hour_9_221" depart="32411.12" from="24711107" to="12968189#1" fromTaz="fringe-X16Y26" toTaz="fringe-X20Y7" departLane="free" departSpeed="max"/>
    <trip id="hour_9_2772" depart="32411.42" from="24821181" to="1131051093" fromTaz="origin-X4Y30" toTaz="grid-X11Y25" departLane="free" departSpeed="max"/>
    <trip id="hour_9_1425" depart="32412.02" from="-28565194" to="290538999" fromTaz="grid-X14Y5" toTaz="destination-X19Y25" departLane="free" departSpeed="max"/>
    <trip id="hour_9_2402" depart="32412.48" from="24821181" to="290538999" fromTaz="origin-X4Y30" toTaz="destination-X19Y25" departLane="free" departSpeed="max"/>
    <trip id="hour_9_1492" depart="32412.61" from="182037602" to="8896380" fromTaz="grid-X16Y6" toTaz="fringe-X23Y15" departLane="free" departSpeed="max"/>
    <trip id="hour_9_2484" depart="32412.68" from="24821181" to="290538999" fromTaz="origin-X4Y30" toTaz="destination-X19Y25" departLane="free" departSpeed="max"/>
    <trip id="hour_9_342" depart="32412.86" from="375714879" to="158346014" fromTaz="fringe-X18Y26" toTaz="fringe-X19Y10" departLane="free" departSpeed="max"/>
    <trip id="hour_9_2555" depart="32413.10" from="24821181" to="290538999" fromTaz="origin-X4Y30" toTaz="destination-X19Y25" departLane="free" departSpeed="max"/>
    <trip id="hour_9_128" depart="32413.17" from="87194347" to="985101034" fromTaz="fringe-X11Y4" toTaz="grid-X6Y4" departLane="free" departSpeed="max"/>
    <trip id="hour_9_1500" depart="32413.78" from="396808035" to="158347370" fromTaz="grid-X17Y6" toTaz="fringe-X19Y10" departLane="free" departSpeed="max"/>
    <trip id="hour_9_1740" depart="32414.02" from="11939530548" to="275056710" fromTaz="grid-X4Y23" toTaz="destination-X4Y30" departLane="free" departSpeed="max"/>
    <trip id="hour_9_1921" depart="32414.41" from="987109374" to="7706026" fromTaz="grid-X8Y2" toTaz="fringe-X18Y9" departLane="free" departSpeed="max"/>
    <trip id="hour_9_1780" depart="32414.71" from="11939528874" to="275056710" fromTaz="grid-X4Y28" toTaz="destination-X4Y30" departLane="free" departSpeed="max"/>
    <trip id="hour_9_2389" depart="32415.14" from="24821181" to="290538999" fromTaz="origin-X4Y30" toTaz="destination-X19Y25" departLane="free" departSpeed="max"/>
    <trip id="hour_9_1541" depart="32415.17" from="-11939538898" to="452051334" fromTaz="grid-X20Y10" toTaz="destination-X7Y1" departLane="free" departSpeed="max"/>
    <trip id="hour_9_946" depart="32415.27" from="-24793256" to="-11939525710" fromTaz="fringe-X23Y16" toTaz="grid-X22Y14" departLane="free" departSpeed="max"/>
    <trip id="hour_9_1809" depart="32415.34" from="-453325903" to="275056710" fromTaz="grid-X5Y26" toTaz="destination-X4Y30" departLane="free" departSpeed="max"/>
    <trip id="hour_9_940" depart="32415.75" from="-24793256" to="-11939528855" fromTaz="fringe-X23Y16" toTaz="grid-X16Y6" departLane="free" departSpeed="max"/>
    <trip id="hour_9_2286" depart="32415.90" from="185260338" to="375714879" fromTaz="origin-X20Y25" toTaz="fringe-X18Y26" departLane="free" departSpeed="max"/>
    <trip id="hour_9_2952" depart="32416.00" from="452051337" to="11939539638" fromTaz="origin-X7Y1" toTaz="grid-X21Y11" departLane="free" departSpeed="max"/>
    <trip id="hour_9_1201" depart="32416.08" from="154716118" to="-11939527556" fromTaz="fringe-X7Y28" toTaz="grid-X8Y1" departLane="free" departSpeed="max"/>
    <trip id="hour_9_2639" depart="32416.66" from="24821181" to="290538999" fromTaz="origin-X4Y30" toTaz="destination-X19Y25" departLane="free" departSpeed="max"/>
    <trip id="hour_9_2067" depart="32416.72" from="185260338" to="275056710" fromTaz="origin-X20Y25" toTaz="destination-X4Y30" departLane="free" departSpeed="max"/>
    <trip id="hour_9_80" depart="32416.72" from="87194347" to="33516829" fromTaz="fringe-X11Y4" toTaz="grid-X10Y1" departLane="free" departSpeed="max"/>
    <trip id="hour_9_416" depart="32417.18" from="-375714879" to="307023793" fromTaz="fringe-X18Y26" toTaz="fringe-X23Y15" departLane="free" departSpeed="max"/>
    <trip id="hour_9_97" depart="32417.50" from="87194342" to="-206492350" fromTaz="fringe-X11Y4" toTaz="grid-X4Y10" departLane="free" departSpeed="max"/>
    <trip id="hour_9_2063" depart="32417.91" from="185260338" to="275056710" fromTaz="origin-X20Y25" toTaz="destination-X4Y30" departLane="free" departSpeed="max"/>
    <trip id="hour_9_25" depart="32418.13" from="-52045883" to="400567504" fromTaz="fringe-X10Y1" toTaz="grid-X20Y7" departLane="free" departSpeed="max"/>
    <trip id="hour_9_10" depart="32418.39" from="52045883" to="452051334" fromTaz="fringe-X10Y1" toTaz="destination-X7Y1" departLane="free" departSpeed="max"/>
    <trip id="hour_9_197" depart="32418.68" from="11939526419" to="326780459" fromTaz="fringe-X16Y26" toTaz="fringe-X19Y22" departLane="free" departSpeed="max"/>
    <trip id="hour_9_1329" depart="32419.49" from="-166565751" to="290538999" fromTaz="grid-X11Y3" toTaz="destination-X19Y25" departLane="free" departSpeed="max"/>
    <trip id="hour_9_378" depart="32419.61" from="375714879" to="-143075780" fromTaz="fringe-X18Y26" toTaz="fringe-X20Y21" departLane="free" departSpeed="max"/>
    <trip id="hour_9_1012" depart="32419.64" from="-40425140" to="275056710" fromTaz="fringe-X4Y29" toTaz="destination-X4Y30" departLane="free" departSpeed="max"/>
    <trip id="hour_9_2260" depart="32419.73" from="185260338" to="275056710" fromTaz="origin-X20Y25" toTaz="destination-X4Y30" departLane="free" departSpeed="max"/>
    <trip id="hour_9_2205" depart="32419.83" from="185260338" to="275056710" fromTaz="origin-X20Y25" toTaz="destination-X4Y30" departLane="free" departSpeed="max"/>
    <trip id="hour_9_2407" depart="32420.18" from="24821181" to="290538999" fromTaz="origin-X4Y30" toTaz="destination-X19Y25" departLane="free" departSpeed="max"/>
    <trip id="hour_9_2114" depart="32420.25" from="185260338" to="275056710" fromTaz="origin-X20Y25" toTaz="destination-X4Y30" departLane="free" departSpeed="max"/>
    <trip id="hour_9_2232" depart="32420.36" from="185260338" to="275056710" fromTaz="origin-X20Y25" toTaz="destination-X4Y30" departLane="free" departSpeed="max"/>
    <trip id="hour_9_965" depart="32421.05" from="134105523" to="-375714879" fromTaz="fringe-X24Y16" toTaz="fringe-X18Y26" departLane="free" departSpeed="max"/>
    <trip id="hour_9_2543" depart="32421.41" from="24821181" to="290538999" fromTaz="origin-X4Y30" toTaz="destination-X19Y25" departLane="free" departSpeed="max"/>
    <trip id="hour_9_1889" depart="32422.64" from="-11939538886" to="275056710" fromTaz="grid-X7Y23" toTaz="destination-X4Y30" departLane="free" departSpeed="max"/>
    <trip id="hour_9_2814" depart="32422.66" from="24821181" to="-47585507" fromTaz="origin-X4Y30" toTaz="grid-X5Y25" departLane="free" departSpeed="max"/>
    <trip id="hour_9_2776" depart="32422.69" from="24821181" to="735250189" fromTaz="origin-X4Y30" toTaz="grid-X11Y25" departLane="free" departSpeed="max"/>
    <trip id="hour_9_101" depart="32422.71" from="87194347" to="-11939541270" fromTaz="fringe-X11Y4" toTaz="grid-X5Y14" departLane="free" departSpeed="max"/>
    <trip id="hour_9_586" depart="32423.70" from="-10666718" to="375714879" fromTaz="fringe-X19Y23" toTaz="fringe-X18Y26" departLane="free" departSpeed="max"/>
    <trip id="hour_9_2922" depart="32423.83" from="452051337" to="-134105523" fromTaz="origin-X7Y1" toTaz="fringe-X24Y16" departLane="free" departSpeed="max"/>
    <trip id="hour_9_1273" depart="32424.44" from="-11939531318" to="275056710" fromTaz="grid-X10Y24" toTaz="destination-X4Y30" departLane="free" departSpeed="max"/>
    <trip id="hour_9_844" depart="32424.58" from="-479358807" to="452051334" fromTaz="fringe-X22Y14" toTaz="destination-X7Y1" departLane="free" departSpeed="max"/>
    <trip id="hour_9_1528" depart="32424.89" from="125058010" to="452051334" fromTaz="grid-X1Y12" toTaz="destination-X7Y1" departLane="free" departSpeed="max"/>
    <trip id="hour_9_570" depart="32424.98" from="326780462" to="-375714879" fromTaz="fringe-X19Y23" toTaz="fringe-X18Y26" departLane="free" departSpeed="max"/>
    <trip id="hour_9_768" depart="32426.00" from="143075780" to="-10666718" fromTaz="fringe-X20Y21" toTaz="fringe-X19Y23" departLane="free" departSpeed="max"/>
    <trip id="hour_9_924" depart="32426.02" from="24793256" to="37850228" fromTaz="fringe-X23Y16" toTaz="fringe-X7Y0" departLane="free" departSpeed="max"/>
    <trip id="hour_9_1428" depart="32426.38" from="451730194" to="290538999" fromTaz="grid-X14Y5" toTaz="destination-X19Y25" departLane="free" departSpeed="max"/>
    <trip id="hour_9_1093" depart="32426.98" from="929240359" to="275056710" fromTaz="fringe-X7Y28" toTaz="destination-X4Y30" departLane="free" departSpeed="max"/>
    <trip id="hour_9_2582" depart="32427.65" from="24821181" to="290538999" fromTaz="origin-X4Y30" toTaz="destination-X19Y25" departLane="free" departSpeed="max"/>
    <trip id="hour_9_1772" depart="32428.77" from="-11939528706" to="275056710" fromTaz="grid-X4Y28" toTaz="destination-X4Y30" departLane="free" departSpeed="max"/>
    <trip id="hour_9_1163" depart="32428.78" from="326572941" to="11939544486" fromTaz="fringe-X7Y28" toTaz="grid-X18Y7" departLane="free" departSpeed="max"/>
    <trip id="hour_9_1028" depart="32429.50" from="40425140" to="275056710" fromTaz="fringe-X4Y29" toTaz="destination-X4Y30" departLane="free" departSpeed="max"/>
    <trip id="hour_9_2076" depart="32429.78" from="185260338" to="275056710" fromTaz="origin-X20Y25" toTaz="destination-X4Y30" departLane="free" departSpeed="max"/>
    <trip id="hour_9_697" depart="32429.82" from="-143075776" to="275056710" fromTaz="fringe-X20Y21" toTaz="destination-X4Y30" departLane="free" departSpeed="max"/>
    <trip id="hour_9_2221" depart="32429.99" from="185260338" to="275056710" fromTaz="origin-X20Y25" toTaz="destination-X4Y30" departLane="free" departSpeed="max"/>
    <trip id="hour_9_2666" depart="32430.10" from="24821181" to="290538999" fromTaz="origin-X4Y30" toTaz="destination-X19Y25" departLane="free" departSpeed="max"/>
    <trip id="hour_9_2697" depart="32430.18" from="24821181" to="290538999" fromTaz="origin-X4Y30" toTaz="destination-X19Y25" departLane="free" departSpeed="max"/>
    <trip id="hour_9_77" depart="32430.86" from="164785142" to="37850228" fromTaz="fringe-X11Y4" toTaz="fringe-X7Y0" departLane="free" departSpeed="max"/>
    <trip id="hour_9_2638" depart="32430.87" from="24821181" to="290538999" fromTaz="origin-X4Y30" toTaz="destination-X19Y25" departLane="free" departSpeed="max"/>
    <trip id="hour_9_2179" depart="32430.97" from="185260338" to="275056710" fromTaz="origin-X20Y25" toTaz="destination-X4Y30" departLane="free" departSpeed="max"/>
    <trip id="hour_9_2581" depart="32431.13" from="24821181" to="290538999" fromTaz="origin-X4Y30" toTaz="destination-X19Y25" departLane="free" departSpeed="max"/>
    <trip id="hour_9_1918" depart="32431.33" from="71736662" to="-375714879" fromTaz="grid-X8Y2" toTaz="fringe-X18Y26" departLane="free" departSpeed="max"/>
    <trip id="hour_9_522" depart="32431.44" from="-10666718" to="290538999" fromTaz="fringe-X19Y23" toTaz="destination-X19Y25" departLane="free" departSpeed="max"/>
    <trip id="hour_9_231" depart="32431.69" from="237130850" to="479358807" fromTaz="fringe-X16Y26" toTaz="fringe-X22Y14" departLane="free" departSpeed="max"/>
    <trip id="hour_9_1713" depart="32431.73" from="11939529884" to="275056710" fromTaz="grid-X3Y27" toTaz="destination-X4Y30" departLane="free" departSpeed="max"/>
    <trip id="hour_9_2610" depart="32431.88" from="24821181" to="290538999" fromTaz="origin-X4Y30" toTaz="destination-X19Y25" departLane="free" departSpeed="max"/>
    <trip id="hour_9_249" depart="32432.34" from="11939526419" to="307024526" fromTaz="fringe-X16Y26" toTaz="fringe-X23Y15" departLane="free" departSpeed="max"/>
    <trip id="hour_9_2042" depart="32432.95" from="185260338" to="275056710" fromTaz="origin-X20Y25" toTaz="destination-X4Y30" departLane="free" departSpeed="max"/>
    <trip id="hour_9_2088" depart="32433.27" from="185260338" to="275056710" fromTaz="origin-X20Y25" toTaz="destination-X4Y30" departLane="free" departSpeed="max"/>
    <trip id="hour_9_216" depart="32433.49" from="326594940" to="-12968189#1" fromTaz="fringe-X16Y26" toTaz="fringe-X20Y7" departLane="free" departSpeed="max"/>
    <trip id="hour_9_1732" depart="32434.90" from="11939539921" to="275056710" fromTaz="grid-X3Y28" toTaz="destination-X4Y30" departLane="free" departSpeed="max"/>
    <trip id="hour_9_752" depart="32434.92" from="-143075776" to="375714879" fromTaz="fringe-X20Y21" toTaz="fringe-X18Y26" departLane="free" departSpeed="max"/>
    <trip id="hour_9_1542" depart="32435.18" from="-11939541123" to="452051334" fromTaz="grid-X20Y10" toTaz="destination-X7Y1" departLane="free" departSpeed="max"/>
    <trip id="hour_9_1749" depart="32435.22" from="11939547762" to="237582244" fromTaz="grid-X4Y25" toTaz="fringe-X1Y12" departLane="free" departSpeed="max"/>
    <trip id="hour_9_1131" depart="32435.56" from="154716118" to="11939532466" fromTaz="fringe-X7Y28" toTaz="grid-X10Y25" departLane="free" departSpeed="max"/>
    <trip id="hour_9_649" depart="32435.70" from="143075776" to="290538999" fromTaz="fringe-X20Y21" toTaz="destination-X19Y25" departLane="free" departSpeed="max"/>
    <trip id="hour_9_20" depart="32435.86" from="-52045883" to="-231309154" fromTaz="fringe-X10Y1" toTaz="grid-X15Y6" departLane="free" departSpeed="max"/>
    <trip id="hour_9_2730" depart="32435.90" from="24821181" to="290538999" fromTaz="origin-X4Y30" toTaz="destination-X19Y25" departLane="free" departSpeed="max"/>
    <trip id="hour_9_729" depart="32436.64" from="143075776" to="375714879" fromTaz="fringe-X20Y21" toTaz="fringe-X18Y26" departLane="free" departSpeed="max"/>
    <trip id="hour_9_2192" depart="32437.00" from="185260338" to="275056710" fromTaz="origin-X20Y25" toTaz="destination-X4Y30" departLane="free" departSpeed="max"/>
    <trip id="hour_9_280" depart="32437.11" from="150270059" to="166565751" fromTaz="fringe-X16Y26" toTaz="grid-X11Y3" departLane="free" departSpeed="max"/>
    <trip id="hour_9_1669" depart="32437.17" from="-51971107" to="275056710" fromTaz="grid-X2Y24" toTaz="destination-X4Y30" departLane="free" departSpeed="max"/>
    <trip id="hour_9_1282" depart="32437.22" from="11939532466" to="275056710" fromTaz="grid-X10Y25" toTaz="destination-X4Y30" departLane="free" departSpeed="max"/>
    <trip id="hour_9_1617" depart="32437.26" from="4493192" to="290538999" fromTaz="grid-X22Y12" toTaz="destination-X19Y25" departLane="free" departSpeed="max"/>
    <trip id="hour_9_269" depart="32437.27" from="150270059" to="-134105523" fromTaz="fringe-X16Y26" toTaz="fringe-X24Y16" departLane="free" departSpeed="max"/>
    <trip id="hour_9_716" depart="32437.58" from="143075776" to="24711107" fromTaz="fringe-X20Y21" toTaz="fringe-X16Y26" departLane="free" departSpeed="max"/>
    <trip id="hour_9_469" depart="32437.74" from="287201448" to="383316546" fromTaz="fringe-X18Y9" toTaz="grid-X22Y12" departLane="free" departSpeed="max"/>
    <trip id="hour_9_2733" depart="32437.87" from="24821181" to="290538999" fromTaz="origin-X4Y30" toTaz="destination-X19Y25" departLane="free" departSpeed="max"/>
    <trip id="hour_9_1643" depart="32437.93" from="326772924" to="452051334" fromTaz="grid-X23Y16" toTaz="destination-X7Y1" departLane="free" departSpeed="max"/>
    <trip id="hour_9_2793" depart="32437.96" from="24821181" to="11939549118" fromTaz="origin-X4Y30" toTaz="grid-X12Y26" departLane="free" departSpeed="max"/>
    <trip id="hour_9_896" depart="32438.12" from="-24793256" to="-375714879" fromTaz="fringe-X23Y16" toTaz="fringe-X18Y26" departLane="free" departSpeed="max"/>
    <trip id="hour_9_1389" depart="32438.89" from="-451730184" to="8896380" fromTaz="grid-X12Y4" toTaz="fringe-X23Y15" departLane="free" departSpeed="max"/>
    <trip id="hour_9_199" depart="32439.30" from="11939526419" to="326780459" fromTaz="fringe-X16Y26" toTaz="fringe-X19Y22" departLane="free" departSpeed="max"/>
    <trip id="hour_9_1556" depart="32439.36" from="-11939547462" to="452051334" fromTaz="grid-X20Y9" toTaz="destination-X7Y1" departLane="free" departSpeed="max"/>
    <trip id="hour_9_256" depart="32439.43" from="24711105" to="8896380" fromTaz="fringe-X16Y26" toTaz="fringe-X23Y15" departLane="free" departSpeed="max"/>
    <trip id="hour_9_181" depart="32439.70" from="150270059" to="4414008" fromTaz="fringe-X16Y26" toTaz="fringe-X19Y10" departLane="free" departSpeed="max"/>
    <trip id="hour_9_2428" depart="32439.97" from="24821181" to="290538999" fromTaz="origin-X4Y30" toTaz="destination-X19Y25" departLane="free" departSpeed="max"/>
    <trip id="hour_9_60" depart="32440.24" from="164785144" to="5058806" fromTaz="fringe-X11Y4" toTaz="fringe-X18Y9" departLane="free" departSpeed="max"/>
    <trip id="hour_9_1577" depart="32440.27" from="-122719360" to="158347370" fromTaz="grid-X21Y11" toTaz="fringe-X19Y10" departLane="free" departSpeed="max"/>
    <trip id="hour_9_1707" depart="32440.64" from="-11939539921" to="275056710" fromTaz="grid-X3Y27" toTaz="destination-X4Y30" departLane="free" departSpeed="max"/>
    <trip id="hour_9_1293" depart="32441.06" from="11939531515" to="4414008" fromTaz="grid-X10Y3" toTaz="fringe-X19Y10" departLane="free" departSpeed="max"/>
    <trip id="hour_9_38" depart="32441.55" from="87194347" to="452051334" fromTaz="fringe-X11Y4" toTaz="destination-X7Y1" departLane="free" departSpeed="max"/>
    <trip id="hour_9_333" depart="32441.59" from="375714879" to="57373256" fromTaz="fringe-X18Y26" toTaz="fringe-X18Y9" departLane="free" departSpeed="max"/>
    <trip id="hour_9_1795" depart="32441.83" from="11939530483" to="275056710" fromTaz="grid-X5Y21" toTaz="destination-X4Y30" departLane="free" departSpeed="max"/>
    <trip id="hour_9_71" depart="32442.16" from="87194347" to="237582244" fromTaz="fringe-X11Y4" toTaz="fringe-X1Y12" departLane="free" departSpeed="max"/>
    <trip id="hour_9_608" depart="32442.34" from="-237582244" to="734247283" fromTaz="fringe-X1Y12" toTaz="grid-X5Y24" departLane="free" departSpeed="max"/>
    <trip id="hour_9_2911" depart="32442.49" from="452051337" to="-479358807" fromTaz="origin-X7Y1" toTaz="fringe-X22Y14" departLane="free" departSpeed="max"/>
    <trip id="hour_9_1550" depart="32442.51" from="-171039413" to="287201448" fromTaz="grid-X20Y11" toTaz="fringe-X18Y9" departLane="free" departSpeed="max"/>
    <trip id="hour_9_1572" depart="32442.67" from="11939539637" to="-52045883" fromTaz="grid-X21Y11" toTaz="fringe-X10Y1" departLane="free" departSpeed="max"/>
    <trip id="hour_9_553" depart="32442.93" from="326780462" to="150270059" fromTaz="fringe-X19Y23" toTaz="fringe-X16Y26" departLane="free" departSpeed="max"/>
    <trip id="hour_9_309" depart="32443.83" from="-375714879" to="290538999" fromTaz="fringe-X18Y26" toTaz="destination-X19Y25" departLane="free" departSpeed="max"/>
    <trip id="hour_9_1109" depart="32444.80" from="5213455" to="275056710" fromTaz="fringe-X7Y28" toTaz="destination-X4Y30" departLane="free" departSpeed="max"/>
    <trip id="hour_9_1261" depart="32444.99" from="288751969" to="275056710" fromTaz="grid-X10Y20" toTaz="destination-X4Y30" departLane="free" departSpeed="max"/>
    <trip id="hour_9_2504" depart="32445.59" from="24821181" to="290538999" fromTaz="origin-X4Y30" toTaz="destination-X19Y25" departLane="free" departSpeed="max"/>
    <trip id="hour_9_1625" depart="32446.05" from="-133951163" to="375714879" fromTaz="grid-X22Y12" toTaz="fringe-X18Y26" departLane="free" departSpeed="max"/>
    <trip id="hour_9_2251" depart="32446.26" from="185260338" to="275056710" fromTaz="origin-X20Y25" toTaz="destination-X4Y30" departLane="free" departSpeed="max"/>
    <trip id="hour_9_2321" depart="32446.79" from="24821181" to="290538999" fromTaz="origin-X4Y30" toTaz="destination-X19Y25" departLane="free" departSpeed="max"/>
    <trip id="hour_9_2728" depart="32446.82" from="24821181" to="290538999" fromTaz="origin-X4Y30" toTaz="destination-X19Y25" departLane="free" departSpeed="max"/>
    <trip id="hour_9_517" depart="32446.90" from="326780462" to="290538999" fromTaz="fringe-X19Y23" toTaz="destination-X19Y25" departLane="free" departSpeed="max"/>
    <trip id="hour_9_683" depart="32447.16" from="-143075780" to="290538999" fromTaz="fringe-X20Y21" toTaz="destination-X19Y25" departLane="free" departSpeed="max"/>
    <trip id="hour_9_2624" depart="32447.65" from="24821181" to="290538999" fromTaz="origin-X4Y30" toTaz="destination-X19Y25" departLane="free" departSpeed="max"/>
    <trip id="hour_9_840" depart="32447.81" from="-121921459" to="-400567504" fromTaz="fringe-X22Y11" toTaz="grid-X20Y7" departLane="free" departSpeed="max"/>
    <trip id="hour_9_750" depart="32448.42" from="143075780" to="-375714879" fromTaz="fringe-X20Y21" toTaz="fringe-X18Y26" departLane="free" departSpeed="max"/>
    <trip id="hour_9_1307" depart="32448.50" from="11939540056" to="275056710" fromTaz="grid-X11Y25" toTaz="destination-X4Y30" departLane="free" departSpeed="max"/>
    <trip id="hour_9_1745" depart="32448.55" from="-11939544608" to="-654765962" fromTaz="grid-X4Y25" toTaz="fringe-X16Y17" departLane="free" departSpeed="max"/>
    <trip id="hour_9_2188" depart="32448.60" from="185260338" to="275056710" fromTaz="origin-X20Y25" toTaz="destination-X4Y30" departLane="free" departSpeed="max"/>
    <trip id="hour_9_532" depart="32448.84" from="-10666718" to="290538999" fromTaz="fringe-X19Y23" toTaz="destination-X19Y25" departLane="free" departSpeed="max"/>
    <trip id="hour_9_2121" depart="32449.06" from="185260338" to="275056710" fromTaz="origin-X20Y25" toTaz="destination-X4Y30" departLane="free" departSpeed="max"/>
    <trip id="hour_9_132" depart="32449.13" from="164785142" to="161925775" fromTaz="fringe-X11Y4" toTaz="grid-X7Y17" departLane="free" departSpeed="max"/>
    <trip id="hour_9_2628" depart="32449.53" from="24821181" to="290538999" fromTaz="origin-X4Y30" toTaz="destination-X19Y25" departLane="free" departSpeed="max"/>
    <trip id="hour_9_1822" depart="32449.85" from="-4214915" to="275056710" fromTaz="grid-X5Y27" toTaz="destination-X4Y30" departLane="free" departSpeed="max"/>
    <trip id="hour_9_2596" depart="32449.86" from="24821181" to="290538999" fromTaz="origin-X4Y30" toTaz="destination-X19Y25" departLane="free" departSpeed="max"/>
    <trip id="hour_9_2513" depart="32450.01" from="24821181" to="290538999" fromTaz="origin-X4Y30" toTaz="destination-X19Y25" departLane="free" departSpeed="max"/>
    <trip id="hour_9_1648" depart="32450.24" from="11939548270" to="375714879" fromTaz="grid-X23Y16" toTaz="fringe-X18Y26" departLane="free" departSpeed="max"/>
    <trip id="hour_9_479" depart="32450.77" from="5058806" to="-11939534800" fromTaz="fringe-X18Y9" toTaz="grid-X24Y15" departLane="free" departSpeed="max"/>
    <trip id="hour_9_2290" depart="32450.82" from="185260338" to="-326780459" fromTaz="origin-X20Y25" toTaz="fringe-X19Y22" departLane="free" departSpeed="max"/>
    <trip id="hour_9_2346" depart="32451.15" from="24821181" to="290538999" fromTaz="origin-X4Y30" toTaz="destination-X19Y25" departLane="free" departSpeed="max"/>
    <trip id="hour_9_472" depart="32451.44" from="287201448" to="11939525710" fromTaz="fringe-X18Y9" toTaz="grid-X22Y14" departLane="free" departSpeed="max"/>
    <trip id="hour_9_1271" depart="32451.58" from="-1081322051" to="275056710" fromTaz="grid-X10Y24" toTaz="destination-X4Y30" departLane="free" departSpeed="max"/>
    <trip id="hour_9_1341" depart="32451.68" from="11939542449" to="121921459" fromTaz="grid-X11Y3" toTaz="fringe-X22Y11" departLane="free" departSpeed="max"/>
    <trip id="hour_9_2840" depart="32452.03" from="24821181" to="11939530736" fromTaz="origin-X4Y30" toTaz="grid-X9Y24" departLane="free" departSpeed="max"/>
    <trip id="hour_9_1400" depart="32452.27" from="-11939549673" to="290538999" fromTaz="grid-X13Y5" toTaz="destination-X19Y25" departLane="free" departSpeed="max"/>
    <trip id="hour_9_1328" depart="32452.37" from="734928999" to="275056710" fromTaz="grid-X11Y26" toTaz="destination-X4Y30" departLane="free" departSpeed="max"/>
    <trip id="hour_9_2883" depart="32452.39" from="452051337" to="158346014" fromTaz="origin-X7Y1" toTaz="fringe-X19Y10" departLane="free" departSpeed="max"/>
    <trip id="hour_9_2871" depart="32452.62" from="452051337" to="5058806" fromTaz="origin-X7Y1" toTaz="fringe-X18Y9" departLane="free" departSpeed="max"/>
    <trip id="hour_9_1218" depart="32452.75" from="-326572945" to="155094219" fromTaz="fringe-X7Y28" toTaz="grid-X8Y3" departLane="free" departSpeed="max"/>
    <trip id="hour_9_619" depart="32453.10" from="958174516" to="275056710" fromTaz="fringe-X1Y23" toTaz="destination-X4Y30" departLane="free" departSpeed="max"/>
    <trip id="hour_9_1372" depart="32453.34" from="11939549118" to="275056710" fromTaz="grid-X12Y26" toTaz="destination-X4Y30" departLane="free" departSpeed="max"/>
    <trip id="hour_9_2329" depart="32453.50" from="24821181" to="290538999" fromTaz="origin-X4Y30" toTaz="destination-X19Y25" departLane="free" departSpeed="max"/>
    <trip id="hour_9_494" depart="32454.47" from="4414008" to="375714879" fromTaz="fringe-X19Y10" toTaz="fringe-X18Y26" departLane="free" departSpeed="max"/>
    <trip id="hour_9_427" depart="32454.60" from="-375714879" to="24793256" fromTaz="fringe-X18Y26" toTaz="fringe-X23Y16" departLane="free" departSpeed="max"/>
    <trip id="hour_9_124" depart="32454.70" from="164785144" to="11939545697" fromTaz="fringe-X11Y4" toTaz="grid-X6Y20" departLane="free" departSpeed="max"/>