<?xml version="1.0" encoding="UTF-8"?>

<routes xmlns:xsi="http://www.w3.org/2001/XMLSchema-instance" xsi:noNamespaceSchemaLocation="http://sumo.dlr.de/xsd/routes_file.xsd">
    <trip id="hour_11_1900" depart="39600.19" from="185260338" to="275056710" fromTaz="origin-X20Y25" toTaz="destination-X4Y30" departLane="free" departSpeed="max"/>
    <trip id="hour_11_53" depart="39600.79" from="164785142" to="37850228" fromTaz="fringe-X11Y4" toTaz="fringe-X7Y0" departLane="free" departSpeed="max"/>
    <trip id="hour_11_2403" depart="39600.90" from="24821181" to="290538999" fromTaz="origin-X4Y30" toTaz="destination-X19Y25" departLane="free" departSpeed="max"/>
    <trip id="hour_11_597" depart="39600.90" from="143075776" to="326594940" fromTaz="fringe-X20Y21" toTaz="fringe-X16Y26" departLane="free" departSpeed="max"/>
    <trip id="hour_11_132" depart="39601.15" from="11939526419" to="57373256" fromTaz="fringe-X16Y26" toTaz="fringe-X18Y9" departLane="free" departSpeed="max"/>
    <trip id="hour_11_2179" depart="39601.24" from="24821181" to="290538999" fromTaz="origin-X4Y30" toTaz="destination-X19Y25" departLane="free" departSpeed="max"/>
    <trip id="hour_11_121" depart="39601.83" from="326594940" to="52045883" fromTaz="fringe-X16Y26" toTaz="fringe-X10Y1" departLane="free" departSpeed="max"/>
    <trip id="hour_11_1056" depart="39601.84" from="326572945" to="-11939549119" fromTaz="fringe-X7Y28" toTaz="grid-X12Y26" departLane="free" departSpeed="max"/>
    <trip id="hour_11_1283" depart="39601.85" from="364433360" to="37850228" fromTaz="grid-X18Y7" toTaz="fringe-X7Y0" departLane="free" departSpeed="max"/>
    <trip id="hour_11_1008" depart="39602.92" from="5213455" to="37850228" fromTaz="fringe-X7Y28" toTaz="fringe-X7Y0" departLane="free" departSpeed="max"/>
    <trip id="hour_11_729" depart="39603.08" from="121921459" to="364433362" fromTaz="fringe-X22Y11" toTaz="grid-X19Y7" departLane="free" departSpeed="max"/>
    <trip id="hour_11_2233" depart="39603.46" from="24821181" to="290538999" fromTaz="origin-X4Y30" toTaz="destination-X19Y25" departLane="free" departSpeed="max"/>
    <trip id="hour_11_1359" depart="39603.53" from="158414578" to="-52045883" fromTaz="grid-X21Y12" toTaz="fringe-X10Y1" departLane="free" departSpeed="max"/>
    <trip id="hour_11_70" depart="39603.84" from="164785142" to="-11939536217" fromTaz="fringe-X11Y4" toTaz="grid-X20Y9" departLane="free" departSpeed="max"/>
    <trip id="hour_11_2574" depart="39604.33" from="24821181" to="11939531620" fromTaz="origin-X4Y30" toTaz="grid-X6Y21" departLane="free" departSpeed="max"/>
    <trip id="hour_11_1845" depart="39605.34" from="-71800112" to="-479358807" fromTaz="grid-X8Y3" toTaz="fringe-X22Y14" departLane="free" departSpeed="max"/>
    <trip id="hour_11_2466" depart="39605.67" from="24821181" to="290538999" fromTaz="origin-X4Y30" toTaz="destination-X19Y25" departLane="free" departSpeed="max"/>
    <trip id="hour_11_2359" depart="39606.09" from="24821181" to="290538999" fromTaz="origin-X4Y30" toTaz="destination-X19Y25" departLane="free" departSpeed="max"/>
    <trip id="hour_11_278" depart="39606.14" from="5058806" to="4414008" fromTaz="fringe-X18Y9" toTaz="fringe-X19Y10" departLane="free" departSpeed="max"/>
    <trip id="hour_11_771" depart="39606.37" from="479358807" to="-375714879" fromTaz="fringe-X22Y14" toTaz="fringe-X18Y26" departLane="free" departSpeed="max"/>
    <trip id="hour_11_1447" depart="39606.67" from="132809544" to="275056710" fromTaz="grid-X23Y16" toTaz="destination-X4Y30" departLane="free" departSpeed="max"/>
    <trip id="hour_11_461" depart="39606.97" from="326780462" to="-375714879" fromTaz="fringe-X19Y23" toTaz="fringe-X18Y26" departLane="free" departSpeed="max"/>
    <trip id="hour_11_2369" depart="39607.37" from="24821181" to="290538999" fromTaz="origin-X4Y30" toTaz="destination-X19Y25" departLane="free" departSpeed="max"/>
    <trip id="hour_11_38" depart="39607.38" from="87194342" to="7706026" fromTaz="fringe-X11Y4" toTaz="fringe-X18Y9" departLane="free" departSpeed="max"/>
    <trip id="hour_11_2576" depart="39607.43" from="24821181" to="633472649" fromTaz="origin-X4Y30" toTaz="grid-X7Y19" departLane="free" departSpeed="max"/>
    <trip id="hour_11_1297" depart="39608.07" from="-67016393" to="275056710" fromTaz="grid-X1Y23" toTaz="destination-X4Y30" departLane="free" departSpeed="max"/>
    <trip id="hour_11_291" depart="39608.55" from="287201448" to="-24793256" fromTaz="fringe-X18Y9" toTaz="fringe-X23Y16" departLane="free" departSpeed="max"/>
    <trip id="hour_11_2159" depart="39608.64" from="24821181" to="290538999" fromTaz="origin-X4Y30" toTaz="destination-X19Y25" departLane="free" departSpeed="max"/>
    <trip id="hour_11_2543" depart="39610.35" from="24821181" to="11939549492" fromTaz="origin-X4Y30" toTaz="grid-X10Y20" departLane="free" departSpeed="max"/>
    <trip id="hour_11_2678" depart="39611.00" from="452051337" to="-11939538898" fromTaz="origin-X7Y1" toTaz="grid-X20Y10" departLane="free" departSpeed="max"/>
    <trip id="hour_11_386" depart="39611.05" from="-326780459" to="11939537420" fromTaz="fringe-X19Y22" toTaz="grid-X18Y7" departLane="free" departSpeed="max"/>
    <trip id="hour_11_216" depart="39611.12" from="-375714879" to="52045883" fromTaz="fringe-X18Y26" toTaz="fringe-X10Y1" departLane="free" departSpeed="max"/>
    <trip id="hour_11_2161" depart="39611.87" from="24821181" to="290538999" fromTaz="origin-X4Y30" toTaz="destination-X19Y25" departLane="free" departSpeed="max"/>
    <trip id="hour_11_1407" depart="39612.02" from="-4814772" to="275056710" fromTaz="grid-X22Y13" toTaz="destination-X4Y30" departLane="free" departSpeed="max"/>
    <trip id="hour_11_2346" depart="39612.48" from="24821181" to="290538999" fromTaz="origin-X4Y30" toTaz="destination-X19Y25" departLane="free" departSpeed="max"/>
    <trip id="hour_11_2428" depart="39612.68" from="24821181" to="290538999" fromTaz="origin-X4Y30" toTaz="destination-X19Y25" departLane="free" departSpeed="max"/>
    <trip id="hour_11_334" depart="39612.86" from="158346014" to="307024526" fromTaz="fringe-X19Y10" toTaz="fringe-X23Y15" departLane="free" departSpeed="max"/>
    <trip id="hour_11_118" depart="39612.90" from="326594940" to="-52045883" fromTaz="fringe-X16Y26" toTaz="fringe-X10Y1" departLane="free" departSpeed="max"/>
    <trip id="hour_11_478" depart="39612.98" from="-10666718" to="375714879" fromTaz="fringe-X19Y23" toTaz="fringe-X18Y26" departLane="free" departSpeed="max"/>
    <trip id="hour_11_2169" depart="39613.02" from="24821181" to="290538999" fromTaz="origin-X4Y30" toTaz="destination-X19Y25" departLane="free" departSpeed="max"/>
    <trip id="hour_11_2499" depart="39613.10" from="24821181" to="290538999" fromTaz="origin-X4Y30" toTaz="destination-X19Y25" departLane="free" departSpeed="max"/>
    <trip id="hour_11_1599" depart="39613.26" from="68468562" to="275056710" fromTaz="grid-X4Y27" toTaz="destination-X4Y30" departLane="free" departSpeed="max"/>
    <trip id="hour_11_58" depart="39613.56" from="164785142" to="11939528671" fromTaz="fringe-X11Y4" toTaz="grid-X19Y9" departLane="free" departSpeed="max"/>
    <trip id="hour_11_1475" depart="39613.78" from="-934948754" to="8896380" fromTaz="grid-X2Y12" toTaz="fringe-X23Y15" departLane="free" departSpeed="max"/>
    <trip id="hour_11_1187" depart="39614.93" from="-11939549394" to="-52045883" fromTaz="grid-X11Y4" toTaz="fringe-X10Y1" departLane="free" departSpeed="max"/>
    <trip id="hour_11_1406" depart="39615.11" from="-169336554" to="290538999" fromTaz="grid-X22Y13" toTaz="destination-X19Y25" departLane="free" departSpeed="max"/>
    <trip id="hour_11_2333" depart="39615.14" from="24821181" to="290538999" fromTaz="origin-X4Y30" toTaz="destination-X19Y25" departLane="free" departSpeed="max"/>
    <trip id="hour_11_964" depart="39615.27" from="37850228" to="-43846138" fromTaz="fringe-X7Y0" toTaz="grid-X8Y2" departLane="free" departSpeed="max"/>
    <trip id="hour_11_2229" depart="39615.90" from="24821181" to="290538999" fromTaz="origin-X4Y30" toTaz="destination-X19Y25" departLane="free" departSpeed="max"/>
    <trip id="hour_11_773" depart="39616.06" from="479358807" to="375714879" fromTaz="fringe-X22Y14" toTaz="fringe-X18Y26" departLane="free" departSpeed="max"/>
    <trip id="hour_11_1206" depart="39616.08" from="-451730147" to="-52045883" fromTaz="grid-X12Y4" toTaz="fringe-X10Y1" departLane="free" departSpeed="max"/>
    <trip id="hour_11_1618" depart="39616.15" from="-68461185" to="452051334" fromTaz="grid-X5Y10" toTaz="destination-X7Y1" departLane="free" departSpeed="max"/>
    <trip id="hour_11_1739" depart="39616.29" from="11939535480" to="158346347" fromTaz="grid-X5Y9" toTaz="fringe-X19Y10" departLane="free" departSpeed="max"/>
    <trip id="hour_11_2016" depart="39616.72" from="185260338" to="275056710" fromTaz="origin-X20Y25" toTaz="destination-X4Y30" departLane="free" departSpeed="max"/>
    <trip id="hour_11_405" depart="39617.18" from="-10666718" to="290538999" fromTaz="fringe-X19Y23" toTaz="destination-X19Y25" departLane="free" departSpeed="max"/>
    <trip id="hour_11_92" depart="39617.50" from="11939526419" to="290538999" fromTaz="fringe-X16Y26" toTaz="destination-X19Y25" departLane="free" departSpeed="max"/>
    <trip id="hour_11_2676" depart="39617.58" from="452051337" to="-11939541123" fromTaz="origin-X7Y1" toTaz="grid-X20Y10" departLane="free" departSpeed="max"/>
    <trip id="hour_11_1277" depart="39617.76" from="-11939536356" to="452051334" fromTaz="grid-X18Y7" toTaz="destination-X7Y1" departLane="free" departSpeed="max"/>
    <trip id="hour_11_2012" depart="39617.91" from="185260338" to="275056710" fromTaz="origin-X20Y25" toTaz="destination-X4Y30" departLane="free" departSpeed="max"/>
    <trip id="hour_11_192" depart="39618.68" from="-375714879" to="290538999" fromTaz="fringe-X18Y26" toTaz="destination-X19Y25" departLane="free" departSpeed="max"/>
    <trip id="hour_11_61" depart="39618.68" from="87194342" to="-11939541123" fromTaz="fringe-X11Y4" toTaz="grid-X20Y10" departLane="free" departSpeed="max"/>
    <trip id="hour_11_1790" depart="39619.32" from="-161925775" to="-237582244" fromTaz="grid-X7Y17" toTaz="fringe-X1Y12" departLane="free" departSpeed="max"/>
    <trip id="hour_11_24" depart="39619.60" from="87194342" to="452051334" fromTaz="fringe-X11Y4" toTaz="destination-X7Y1" departLane="free" departSpeed="max"/>
    <trip id="hour_11_368" depart="39619.61" from="326780459" to="-143075780" fromTaz="fringe-X19Y22" toTaz="fringe-X20Y21" departLane="free" departSpeed="max"/>
    <trip id="hour_11_1033" depart="39619.64" from="5213455" to="11939531515" fromTaz="fringe-X7Y28" toTaz="grid-X10Y3" departLane="free" departSpeed="max"/>
    <trip id="hour_11_2202" depart="39619.73" from="24821181" to="290538999" fromTaz="origin-X4Y30" toTaz="destination-X19Y25" departLane="free" departSpeed="max"/>
    <trip id="hour_11_2351" depart="39620.18" from="24821181" to="290538999" fromTaz="origin-X4Y30" toTaz="destination-X19Y25" departLane="free" departSpeed="max"/>
    <trip id="hour_11_2063" depart="39620.25" from="185260338" to="275056710" fromTaz="origin-X20Y25" toTaz="destination-X4Y30" departLane="free" departSpeed="max"/>
    <trip id="hour_11_2174" depart="39620.36" from="24821181" to="290538999" fromTaz="origin-X4Y30" toTaz="destination-X19Y25" departLane="free" departSpeed="max"/>
    <trip id="hour_11_2487" depart="39621.41" from="24821181" to="290538999" fromTaz="origin-X4Y30" toTaz="destination-X19Y25" departLane="free" departSpeed="max"/>
    <trip id="hour_11_985" depart="39622.28" from="326572945" to="275056710" fromTaz="fringe-X7Y28" toTaz="destination-X4Y30" departLane="free" departSpeed="max"/>
    <trip id="hour_11_1830" depart="39622.64" from="-155094219" to="52045883" fromTaz="grid-X8Y3" toTaz="fringe-X10Y1" departLane="free" departSpeed="max"/>
    <trip id="hour_11_574" depart="39623.70" from="143075780" to="275056710" fromTaz="fringe-X20Y21" toTaz="destination-X4Y30" departLane="free" departSpeed="max"/>
    <trip id="hour_11_1037" depart="39623.89" from="326572941" to="-11939530092" fromTaz="fringe-X7Y28" toTaz="grid-X11Y19" departLane="free" departSpeed="max"/>
    <trip id="hour_11_859" depart="39624.58" from="-24793256" to="155094219" fromTaz="fringe-X23Y16" toTaz="grid-X8Y3" departLane="free" departSpeed="max"/>
    <trip id="hour_11_558" depart="39624.98" from="-143075776" to="290538999" fromTaz="fringe-X20Y21" toTaz="destination-X19Y25" departLane="free" departSpeed="max"/>
    <trip id="hour_11_15" depart="39625.67" from="-52045883" to="171024561" fromTaz="fringe-X10Y1" toTaz="grid-X20Y11" departLane="free" departSpeed="max"/>
    <trip id="hour_11_1728" depart="39626.84" from="-984980762" to="-12968189#1" fromTaz="grid-X5Y7" toTaz="fringe-X20Y7" departLane="free" departSpeed="max"/>
    <trip id="hour_11_2526" depart="39627.65" from="24821181" to="290538999" fromTaz="origin-X4Y30" toTaz="destination-X19Y25" departLane="free" departSpeed="max"/>
    <trip id="hour_11_1169" depart="39628.78" from="-11939525406" to="275056710" fromTaz="grid-X11Y26" toTaz="destination-X4Y30" departLane="free" departSpeed="max"/>
    <trip id="hour_11_1204" depart="39628.82" from="11939549119" to="326572945" fromTaz="grid-X12Y26" toTaz="fringe-X7Y28" departLane="free" departSpeed="max"/>
    <trip id="hour_11_1801" depart="39629.15" from="-71736663" to="158346347" fromTaz="grid-X7Y2" toTaz="fringe-X19Y10" departLane="free" departSpeed="max"/>
    <trip id="hour_11_1097" depart="39629.17" from="326572941" to="-42484295" fromTaz="fringe-X7Y28" toTaz="grid-X6Y15" departLane="free" departSpeed="max"/>
    <trip id="hour_11_1048" depart="39629.50" from="929240359" to="314146374" fromTaz="fringe-X7Y28" toTaz="grid-X11Y26" departLane="free" departSpeed="max"/>
    <trip id="hour_11_2025" depart="39629.78" from="185260338" to="275056710" fromTaz="origin-X20Y25" toTaz="destination-X4Y30" departLane="free" departSpeed="max"/>
    <trip id="hour_11_2626" depart="39630.18" from="452051337" to="287201448" fromTaz="origin-X7Y1" toTaz="fringe-X18Y9" departLane="free" departSpeed="max"/>
    <trip id="hour_11_1111" depart="39631.01" from="154716118" to="11939546429" fromTaz="fringe-X7Y28" toTaz="grid-X9Y21" departLane="free" departSpeed="max"/>
    <trip id="hour_11_2525" depart="39631.13" from="24821181" to="290538999" fromTaz="origin-X4Y30" toTaz="destination-X19Y25" departLane="free" departSpeed="max"/>
    <trip id="hour_11_1859" depart="39631.33" from="46650702" to="452051334" fromTaz="grid-X9Y2" toTaz="destination-X7Y1" departLane="free" departSpeed="max"/>
    <trip id="hour_11_512" depart="39631.44" from="-958174516" to="275056710" fromTaz="fringe-X1Y23" toTaz="destination-X4Y30" departLane="free" departSpeed="max"/>
    <trip id="hour_11_226" depart="39631.69" from="375714879" to="57373256" fromTaz="fringe-X18Y26" toTaz="fringe-X18Y9" departLane="free" departSpeed="max"/>
    <trip id="hour_11_1260" depart="39631.70" from="451704782" to="237582244" fromTaz="grid-X17Y6" toTaz="fringe-X1Y12" departLane="free" departSpeed="max"/>
    <trip id="hour_11_1679" depart="39631.73" from="202156414" to="275056710" fromTaz="grid-X5Y28" toTaz="destination-X4Y30" departLane="free" departSpeed="max"/>
    <trip id="hour_11_1685" depart="39631.80" from="-142676274" to="275056710" fromTaz="grid-X5Y28" toTaz="destination-X4Y30" departLane="free" departSpeed="max"/>
    <trip id="hour_11_243" depart="39632.34" from="-375714879" to="-143075780" fromTaz="fringe-X18Y26" toTaz="fringe-X20Y21" departLane="free" departSpeed="max"/>
    <trip id="hour_11_1865" depart="39632.93" from="11939549865" to="275056710" fromTaz="grid-X9Y21" toTaz="destination-X4Y30" departLane="free" departSpeed="max"/>
    <trip id="hour_11_1991" depart="39632.95" from="185260338" to="275056710" fromTaz="origin-X20Y25" toTaz="destination-X4Y30" departLane="free" departSpeed="max"/>
    <trip id="hour_11_124" depart="39633.22" from="237130850" to="-52045883" fromTaz="fringe-X16Y26" toTaz="fringe-X10Y1" departLane="free" departSpeed="max"/>
    <trip id="hour_11_2037" depart="39633.27" from="185260338" to="275056710" fromTaz="origin-X20Y25" toTaz="destination-X4Y30" departLane="free" departSpeed="max"/>
    <trip id="hour_11_1197" depart="39633.34" from="11939549118" to="275056710" fromTaz="grid-X12Y26" toTaz="destination-X4Y30" departLane="free" departSpeed="max"/>
    <trip id="hour_11_211" depart="39633.49" from="375714879" to="452051334" fromTaz="fringe-X18Y26" toTaz="destination-X7Y1" departLane="free" departSpeed="max"/>
    <trip id="hour_11_459" depart="39633.79" from="10666718" to="326594940" fromTaz="fringe-X19Y23" toTaz="fringe-X16Y26" departLane="free" departSpeed="max"/>
    <trip id="hour_11_1356" depart="39633.96" from="1009757382" to="452051334" fromTaz="grid-X21Y12" toTaz="destination-X7Y1" departLane="free" departSpeed="max"/>
    <trip id="hour_11_1031" depart="39634.27" from="-326572945" to="11939532466" fromTaz="fringe-X7Y28" toTaz="grid-X10Y25" departLane="free" departSpeed="max"/>
    <trip id="hour_11_1480" depart="39634.45" from="-207067942" to="-237582244" fromTaz="grid-X2Y14" toTaz="fringe-X1Y12" departLane="free" departSpeed="max"/>
    <trip id="hour_11_1695" depart="39634.90" from="985101011" to="12968189#1" fromTaz="grid-X5Y5" toTaz="fringe-X20Y7" departLane="free" departSpeed="max"/>
    <trip id="hour_11_670" depart="39635.70" from="-12968189#1" to="-11939550412" fromTaz="fringe-X20Y7" toTaz="grid-X19Y9" departLane="free" departSpeed="max"/>
    <trip id="hour_11_665" depart="39636.13" from="12968189#1" to="307024526" fromTaz="fringe-X20Y7" toTaz="fringe-X23Y15" departLane="free" departSpeed="max"/>
    <trip id="hour_11_1155" depart="39636.35" from="11939540185" to="37850228" fromTaz="grid-X10Y3" toTaz="fringe-X7Y0" departLane="free" departSpeed="max"/>
    <trip id="hour_11_231" depart="39636.69" from="-375714879" to="158346347" fromTaz="fringe-X18Y26" toTaz="fringe-X19Y10" departLane="free" departSpeed="max"/>
    <trip id="hour_11_1459" depart="39636.70" from="-5235459" to="-12968189#1" fromTaz="grid-X23Y16" toTaz="fringe-X20Y7" departLane="free" departSpeed="max"/>
    <trip id="hour_11_1582" depart="39637.26" from="47585507" to="654765962" fromTaz="grid-X4Y25" toTaz="fringe-X16Y17" departLane="free" departSpeed="max"/>
    <trip id="hour_11_263" depart="39637.27" from="375714879" to="8896380" fromTaz="fringe-X18Y26" toTaz="fringe-X23Y15" departLane="free" departSpeed="max"/>
    <trip id="hour_11_731" depart="39637.58" from="-121921459" to="985101035" fromTaz="fringe-X22Y11" toTaz="grid-X6Y4" departLane="free" departSpeed="max"/>
    <trip id="hour_11_2132" depart="39637.83" from="185260338" to="-346397321" fromTaz="origin-X20Y25" toTaz="grid-X19Y7" departLane="free" departSpeed="max"/>
    <trip id="hour_11_79" depart="39638.04" from="-654765962" to="275056710" fromTaz="fringe-X16Y17" toTaz="destination-X4Y30" departLane="free" departSpeed="max"/>
    <trip id="hour_11_914" depart="39638.12" from="40425140" to="-237582244" fromTaz="fringe-X4Y29" toTaz="fringe-X1Y12" departLane="free" departSpeed="max"/>
    <trip id="hour_11_2549" depart="39638.13" from="24821181" to="-11939537277" fromTaz="origin-X4Y30" toTaz="grid-X10Y25" departLane="free" departSpeed="max"/>
    <trip id="hour_11_867" depart="39638.54" from="134105523" to="452051334" fromTaz="fringe-X24Y16" toTaz="destination-X7Y1" departLane="free" departSpeed="max"/>
    <trip id="hour_11_1374" depart="39638.89" from="-158414578" to="-37850228" fromTaz="grid-X21Y12" toTaz="fringe-X7Y0" departLane="free" departSpeed="max"/>
    <trip id="hour_11_790" depart="39638.97" from="-479358807" to="307024527" fromTaz="fringe-X22Y14" toTaz="fringe-X23Y15" departLane="free" departSpeed="max"/>
    <trip id="hour_11_944" depart="39639.29" from="37850228" to="52045883" fromTaz="fringe-X7Y0" toTaz="fringe-X10Y1" departLane="free" departSpeed="max"/>
    <trip id="hour_11_194" depart="39639.30" from="375714879" to="290538999" fromTaz="fringe-X18Y26" toTaz="destination-X19Y25" departLane="free" departSpeed="max"/>
    <trip id="hour_11_250" depart="39639.43" from="-375714879" to="-12968189#1" fromTaz="fringe-X18Y26" toTaz="fringe-X20Y7" departLane="free" departSpeed="max"/>
    <trip id="hour_11_2372" depart="39639.97" from="24821181" to="290538999" fromTaz="origin-X4Y30" toTaz="destination-X19Y25" departLane="free" departSpeed="max"/>
    <trip id="hour_11_536" depart="39640.26" from="958174516" to="11939541864" fromTaz="fringe-X1Y23" toTaz="grid-X2Y25" departLane="free" departSpeed="max"/>
    <trip id="hour_11_1675" depart="39640.64" from="-26619947" to="-237582244" fromTaz="grid-X5Y27" toTaz="fringe-X1Y12" departLane="free" departSpeed="max"/>
    <trip id="hour_11_839" depart="39640.97" from="-24793256" to="375714879" fromTaz="fringe-X23Y16" toTaz="fringe-X18Y26" departLane="free" departSpeed="max"/>
    <trip id="hour_11_325" depart="39641.59" from="158347370" to="375714879" fromTaz="fringe-X19Y10" toTaz="fringe-X18Y26" departLane="free" departSpeed="max"/>
    <trip id="hour_11_1144" depart="39641.66" from="-11939537277" to="275056710" fromTaz="grid-X10Y25" toTaz="destination-X4Y30" departLane="free" departSpeed="max"/>
    <trip id="hour_11_1750" depart="39641.83" from="11939548502" to="-237582244" fromTaz="grid-X6Y15" toTaz="fringe-X1Y12" departLane="free" departSpeed="max"/>
    <trip id="hour_11_996" depart="39642.10" from="-326572945" to="275056710" fromTaz="fringe-X7Y28" toTaz="destination-X4Y30" departLane="free" departSpeed="max"/>
    <trip id="hour_11_605" depart="39642.34" from="143075780" to="-375714879" fromTaz="fringe-X20Y21" toTaz="fringe-X18Y26" departLane="free" departSpeed="max"/>
    <trip id="hour_11_1519" depart="39642.51" from="-11939542629" to="275056710" fromTaz="grid-X3Y22" toTaz="destination-X4Y30" departLane="free" departSpeed="max"/>
    <trip id="hour_11_542" depart="39642.93" from="958174516" to="-109793913" fromTaz="fringe-X1Y23" toTaz="grid-X2Y26" departLane="free" departSpeed="max"/>
    <trip id="hour_11_302" depart="39643.83" from="287201448" to="-11939523900" fromTaz="fringe-X18Y9" toTaz="grid-X20Y10" departLane="free" departSpeed="max"/>
    <trip id="hour_11_2448" depart="39645.59" from="24821181" to="290538999" fromTaz="origin-X4Y30" toTaz="destination-X19Y25" departLane="free" departSpeed="max"/>
    <trip id="hour_11_1875" depart="39645.60" from="-46968482" to="-237582244" fromTaz="grid-X9Y23" toTaz="fringe-X1Y12" departLane="free" departSpeed="max"/>
    <trip id="hour_11_448" depart="39646.25" from="326780462" to="11939526419" fromTaz="fringe-X19Y23" toTaz="fringe-X16Y26" departLane="free" departSpeed="max"/>
    <trip id="hour_11_2193" depart="39646.26" from="24821181" to="290538999" fromTaz="origin-X4Y30" toTaz="destination-X19Y25" departLane="free" departSpeed="max"/>
    <trip id="hour_11_1663" depart="39646.55" from="453325903" to="-185406398" fromTaz="grid-X5Y26" toTaz="fringe-X1Y22" departLane="free" departSpeed="max"/>
    <trip id="hour_11_2265" depart="39646.79" from="24821181" to="290538999" fromTaz="origin-X4Y30" toTaz="destination-X19Y25" departLane="free" departSpeed="max"/>
    <trip id="hour_11_78" depart="39647.01" from="654765962" to="275056710" fromTaz="fringe-X16Y17" toTaz="destination-X4Y30" departLane="free" departSpeed="max"/>
    <trip id="hour_11_701" depart="39647.16" from="-121921459" to="-375714879" fromTaz="fringe-X22Y11" toTaz="fringe-X18Y26" departLane="free" departSpeed="max"/>
    <trip id="hour_11_2563" depart="39647.65" from="24821181" to="11939549119" fromTaz="origin-X4Y30" toTaz="grid-X12Y26" departLane="free" departSpeed="max"/>
    <trip id="hour_11_2134" depart="39648.60" from="185260338" to="131347894" fromTaz="origin-X20Y25" toTaz="grid-X19Y8" departLane="free" departSpeed="max"/>
    <trip id="hour_11_611" depart="39648.71" from="143075780" to="-375714879" fromTaz="fringe-X20Y21" toTaz="fringe-X18Y26" departLane="free" departSpeed="max"/>
    <trip id="hour_11_522" depart="39648.84" from="-958174516" to="275056710" fromTaz="fringe-X1Y23" toTaz="destination-X4Y30" departLane="free" departSpeed="max"/>
    <trip id="hour_11_625" depart="39649.01" from="-12968189#1" to="290538999" fromTaz="fringe-X20Y7" toTaz="destination-X19Y25" departLane="free" departSpeed="max"/>
    <trip id="hour_11_2070" depart="39649.06" from="185260338" to="275056710" fromTaz="origin-X20Y25" toTaz="destination-X4Y30" departLane="free" departSpeed="max"/>
    <trip id="hour_11_1769" depart="39649.85" from="-633472649" to="5213455" fromTaz="grid-X6Y19" toTaz="fringe-X7Y28" departLane="free" departSpeed="max"/>
    <trip id="hour_11_2539" depart="39649.86" from="24821181" to="958174516" fromTaz="origin-X4Y30" toTaz="fringe-X1Y23" departLane="free" departSpeed="max"/>
    <trip id="hour_11_2457" depart="39650.01" from="24821181" to="290538999" fromTaz="origin-X4Y30" toTaz="destination-X19Y25" departLane="free" departSpeed="max"/>
    <trip id="hour_11_1245" depart="39650.13" from="-451704803" to="452051334" fromTaz="grid-X16Y6" toTaz="destination-X7Y1" departLane="free" departSpeed="max"/>
    <trip id="hour_11_2290" depart="39651.15" from="24821181" to="290538999" fromTaz="origin-X4Y30" toTaz="destination-X19Y25" departLane="free" departSpeed="max"/>
    <trip id="hour_11_1050" depart="39651.17" from="-326572945" to="11939525443" fromTaz="fringe-X7Y28" toTaz="grid-X11Y3" departLane="free" departSpeed="max"/>
    <trip id="hour_11_474" depart="39651.44" from="326780462" to="-375714879" fromTaz="fringe-X19Y23" toTaz="fringe-X18Y26" departLane="free" departSpeed="max"/>
    <trip id="hour_11_676" depart="39651.46" from="-12968189#1" to="-184785913" fromTaz="fringe-X20Y7" toTaz="grid-X20Y11" departLane="free" departSpeed="max"/>
    <trip id="hour_11_1263" depart="39651.58" from="-451704782" to="8896380" fromTaz="grid-X17Y6" toTaz="fringe-X23Y15" departLane="free" departSpeed="max"/>
    <trip id="hour_11_1384" depart="39652.27" from="-121921437" to="158346347" fromTaz="grid-X22Y11" toTaz="fringe-X19Y10" departLane="free" departSpeed="max"/>
    <trip id="hour_11_640" depart="39653.10" from="12968189#1" to="326594940" fromTaz="fringe-X20Y7" toTaz="fringe-X16Y26" departLane="free" departSpeed="max"/>
    <trip id="hour_11_2273" depart="39653.50" from="24821181" to="290538999" fromTaz="origin-X4Y30" toTaz="destination-X19Y25" departLane="free" departSpeed="max"/>
    <trip id="hour_11_528" depart="39653.69" from="958174516" to="275056710" fromTaz="fringe-X1Y23" toTaz="destination-X4Y30" departLane="free" departSpeed="max"/>
    <trip id="hour_11_1006" depart="39653.80" from="326572941" to="958174516" fromTaz="fringe-X7Y28" toTaz="fringe-X1Y23" departLane="free" departSpeed="max"/>
    <trip id="hour_11_1467" depart="39653.94" from="11939538400" to="-237582244" fromTaz="grid-X2Y11" toTaz="fringe-X1Y12" departLane="free" departSpeed="max"/>
    <trip id="hour_11_1765" depart="39653.95" from="907071032" to="5213455" fromTaz="grid-X6Y18" toTaz="fringe-X7Y28" departLane="free" departSpeed="max"/>
    <trip id="hour_11_416" depart="39654.60" from="326780462" to="290538999" fromTaz="fringe-X19Y23" toTaz="destination-X19Y25" departLane="free" departSpeed="max"/>
    <trip id="hour_11_5" depart="39655.65" from="-52045883" to="37850228" fromTaz="fringe-X10Y1" toTaz="fringe-X7Y0" departLane="free" departSpeed="max"/>
    <trip id="hour_11_2470" depart="39655.81" from="24821181" to="290538999" fromTaz="origin-X4Y30" toTaz="destination-X19Y25" departLane="free" departSpeed="max"/>
    <trip id="hour_11_1797" depart="39655.87" from="-71736663" to="52045883" fromTaz="grid-X7Y2" toTaz="fringe-X10Y1" departLane="free" departSpeed="max"/>
    <trip id="hour_11_749" depart="39656.46" from="479358807" to="290538999" fromTaz="fringe-X22Y14" toTaz="destination-X19Y25" departLane="free" departSpeed="max"/>
    <trip id="hour_11_2084" depart="39657.29" from="185260338" to="275056710" fromTaz="origin-X20Y25" toTaz="destination-X4Y30" departLane="free" departSpeed="max"/>
    <trip id="hour_11_1202" depart="39657.52" from="290456883" to="275056710" fromTaz="grid-X12Y26" toTaz="destination-X4Y30" departLane="free" departSpeed="max"/>
    <trip id="hour_11_2647" depart="39658.13" from="452051337" to="-121921459" fromTaz="origin-X7Y1" toTaz="fringe-X22Y11" departLane="free" departSpeed="max"/>
    <trip id="hour_11_557" depart="39658.21" from="143075776" to="290538999" fromTaz="fringe-X20Y21" toTaz="destination-X19Y25" departLane="free" departSpeed="max"/>
    <trip id="hour_11_900" depart="39659.00" from="-40425140" to="275056710" fromTaz="fringe-X4Y29" toTaz="destination-X4Y30" departLane="free" departSpeed="max"/>
    <trip id="hour_11_952" depart="39659.07" from="37850228" to="158346347" fromTaz="fringe-X7Y0" toTaz="fringe-X19Y10" departLane="free" departSpeed="max"/>
    <trip id="hour_11_1561" depart="39659.67" from="11939526296" to="87194342" fromTaz="grid-X4Y10" toTaz="fringe-X11Y4" departLane="free" departSpeed="max"/>
    <trip id="hour_11_2439" depart="39659.75" from="24821181" to="290538999" fromTaz="origin-X4Y30" toTaz="destination-X19Y25" departLane="free" departSpeed="max"/>
    <trip id="hour_11_1078" depart="39659.86" from="326572941" to="-11939527963" fromTaz="fringe-X7Y28" toTaz="grid-X16Y17" departLane="free" departSpeed="max"/>
    <trip id="hour_11_845" depart="39661.34" from="-24793256" to="984980758" fromTaz="fringe-X23Y16" toTaz="grid-X5Y7" departLane="free" departSpeed="max"/>
    <trip id="hour_11_2407" depart="39661.49" from="24821181" to="290538999" fromTaz="origin-X4Y30" toTaz="destination-X19Y25" departLane="free" departSpeed="max"/>
    <trip id="hour_11_516" depart="39661.86" from="-958174516" to="275056710" fromTaz="fringe-X1Y23" toTaz="destination-X4Y30" departLane="free" departSpeed="max"/>
    <trip id="hour_11_1968" depart="39661.92" from="185260338" to="275056710" fromTaz="origin-X20Y25" toTaz="destination-X4Y30" departLane="free" departSpeed="max"/>