<?xml version="1.0" encoding="UTF-8"?>

<routes xmlns:xsi="http://www.w3.org/2001/XMLSchema-instance" xsi:noNamespaceSchemaLocation="http://sumo.dlr.de/xsd/routes_file.xsd">
    <trip id="hour_20_770" depart="72000.26" from="-11939528489" to="275056710" fromTaz="grid-X5Y20" toTaz="destination-X4Y30" departLane="free" departSpeed="max"/>
    <trip id="hour_20_776" depart="72001.28" from="-906493534" to="654765962" fromTaz="grid-X5Y21" toTaz="fringe-X16Y17" departLane="free" departSpeed="max"/>
    <trip id="hour_20_1249" depart="72001.85" from="24821181" to="290538999" fromTaz="origin-X4Y30" toTaz="destination-X19Y25" departLane="free" departSpeed="max"/>
    <trip id="hour_20_1332" depart="72003.53" from="452051337" to="57373256" fromTaz="origin-X7Y1" toTaz="fringe-X18Y9" departLane="free" departSpeed="max"/>
    <trip id="hour_20_812" depart="72003.87" from="-632592847" to="929240359" fromTaz="grid-X6Y17" toTaz="fringe-X7Y28" departLane="free" departSpeed="max"/>
    <trip id="hour_20_1205" depart="72003.98" from="24821181" to="290538999" fromTaz="origin-X4Y30" toTaz="destination-X19Y25" departLane="free" departSpeed="max"/>
    <trip id="hour_20_272" depart="72006.14" from="-121921459" to="4414008" fromTaz="fringe-X22Y11" toTaz="fringe-X19Y10" departLane="free" departSpeed="max"/>
    <trip id="hour_20_59" depart="72006.36" from="150270059" to="143075780" fromTaz="fringe-X16Y26" toTaz="fringe-X20Y21" departLane="free" departSpeed="max"/>
    <trip id="hour_20_308" depart="72006.49" from="-479358807" to="182037602" fromTaz="fringe-X22Y14" toTaz="grid-X16Y6" departLane="free" departSpeed="max"/>
    <trip id="hour_20_763" depart="72006.74" from="11939532937" to="654765962" fromTaz="grid-X5Y18" toTaz="fringe-X16Y17" departLane="free" departSpeed="max"/>
    <trip id="hour_20_596" depart="72006.89" from="-451704803" to="158347370" fromTaz="grid-X16Y6" toTaz="fringe-X19Y10" departLane="free" departSpeed="max"/>
    <trip id="hour_20_441" depart="72006.97" from="326572945" to="275056710" fromTaz="fringe-X7Y28" toTaz="destination-X4Y30" departLane="free" departSpeed="max"/>
    <trip id="hour_20_42" depart="72007.38" from="11939526419" to="7706026" fromTaz="fringe-X16Y26" toTaz="fringe-X18Y9" departLane="free" departSpeed="max"/>
    <trip id="hour_20_1265" depart="72008.07" from="24821181" to="-11939539680" fromTaz="origin-X4Y30" toTaz="grid-X10Y19" departLane="free" departSpeed="max"/>
    <trip id="hour_20_872" depart="72009.53" from="11939541590" to="-37850228" fromTaz="grid-X8Y2" toTaz="fringe-X7Y0" departLane="free" departSpeed="max"/>
    <trip id="hour_20_2" depart="72009.74" from="164785142" to="158346347" fromTaz="fringe-X11Y4" toTaz="fringe-X19Y10" departLane="free" departSpeed="max"/>
    <trip id="hour_20_1388" depart="72012.02" from="452051337" to="-11939529179" fromTaz="origin-X7Y1" toTaz="grid-X19Y9" departLane="free" departSpeed="max"/>
    <trip id="hour_20_275" depart="72012.93" from="-121921459" to="-11939548162" fromTaz="fringe-X22Y11" toTaz="grid-X10Y3" departLane="free" departSpeed="max"/>
    <trip id="hour_20_150" depart="72013.05" from="-10666718" to="275056710" fromTaz="fringe-X19Y23" toTaz="destination-X4Y30" departLane="free" departSpeed="max"/>
    <trip id="hour_20_132" depart="72013.17" from="4414008" to="396807590" fromTaz="fringe-X19Y10" toTaz="grid-X15Y6" departLane="free" departSpeed="max"/>
    <trip id="hour_20_65" depart="72013.56" from="150270059" to="143075780" fromTaz="fringe-X16Y26" toTaz="fringe-X20Y21" departLane="free" departSpeed="max"/>
    <trip id="hour_20_1128" depart="72014.93" from="24821181" to="290538999" fromTaz="origin-X4Y30" toTaz="destination-X19Y25" departLane="free" departSpeed="max"/>
    <trip id="hour_20_884" depart="72015.27" from="155094215" to="-654765962" fromTaz="grid-X8Y3" toTaz="fringe-X16Y17" departLane="free" departSpeed="max"/>
    <trip id="hour_20_699" depart="72015.70" from="-11939538119" to="290538999" fromTaz="grid-X23Y14" toTaz="destination-X19Y25" departLane="free" departSpeed="max"/>
    <trip id="hour_20_771" depart="72017.13" from="-11939546467" to="654765962" fromTaz="grid-X5Y20" toTaz="fringe-X16Y17" departLane="free" departSpeed="max"/>
    <trip id="hour_20_100" depart="72017.50" from="375714879" to="-143075780" fromTaz="fringe-X18Y26" toTaz="fringe-X20Y21" departLane="free" departSpeed="max"/>
    <trip id="hour_20_9" depart="72018.39" from="24711105" to="290538999" fromTaz="fringe-X16Y26" toTaz="destination-X19Y25" departLane="free" departSpeed="max"/>
    <trip id="hour_20_356" depart="72019.61" from="24793256" to="375714879" fromTaz="fringe-X23Y16" toTaz="fringe-X18Y26" departLane="free" departSpeed="max"/>
    <trip id="hour_20_428" depart="72019.74" from="37850228" to="168138716" fromTaz="fringe-X7Y0" toTaz="grid-X10Y1" departLane="free" departSpeed="max"/>
    <trip id="hour_20_799" depart="72019.77" from="11939538443" to="275056710" fromTaz="grid-X6Y14" toTaz="destination-X4Y30" departLane="free" departSpeed="max"/>
    <trip id="hour_20_525" depart="72020.20" from="-11939532464" to="326572945" fromTaz="grid-X10Y25" toTaz="fringe-X7Y28" departLane="free" departSpeed="max"/>
    <trip id="hour_20_1227" depart="72024.44" from="24821181" to="290538999" fromTaz="origin-X4Y30" toTaz="destination-X19Y25" departLane="free" departSpeed="max"/>
    <trip id="hour_20_540" depart="72024.98" from="199334828" to="326572945" fromTaz="grid-X11Y25" toTaz="fringe-X7Y28" departLane="free" departSpeed="max"/>
    <trip id="hour_20_728" depart="72026.00" from="1195225554" to="275056710" fromTaz="grid-X2Y24" toTaz="destination-X4Y30" departLane="free" departSpeed="max"/>
    <trip id="hour_20_273" depart="72026.51" from="121921459" to="-12968189#1" fromTaz="fringe-X22Y11" toTaz="fringe-X20Y7" departLane="free" departSpeed="max"/>
    <trip id="hour_20_1252" depart="72026.53" from="24821181" to="290538999" fromTaz="origin-X4Y30" toTaz="destination-X19Y25" departLane="free" departSpeed="max"/>
    <trip id="hour_20_56" depart="72027.48" from="237130850" to="-326780459" fromTaz="fringe-X16Y26" toTaz="fringe-X19Y22" departLane="free" departSpeed="max"/>
    <trip id="hour_20_1106" depart="72028.78" from="24821181" to="290538999" fromTaz="origin-X4Y30" toTaz="destination-X19Y25" departLane="free" departSpeed="max"/>
    <trip id="hour_20_965" depart="72029.50" from="185260338" to="275056710" fromTaz="origin-X20Y25" toTaz="destination-X4Y30" departLane="free" departSpeed="max"/>
    <trip id="hour_20_669" depart="72029.82" from="4814762" to="275056710" fromTaz="grid-X22Y12" toTaz="destination-X4Y30" departLane="free" departSpeed="max"/>
    <trip id="hour_20_79" depart="72030.86" from="237130850" to="307024527" fromTaz="fringe-X16Y26" toTaz="fringe-X23Y15" departLane="free" departSpeed="max"/>
    <trip id="hour_20_498" depart="72031.44" from="-11939539680" to="275056710" fromTaz="grid-X10Y19" toTaz="destination-X4Y30" departLane="free" departSpeed="max"/>
    <trip id="hour_20_1141" depart="72033.34" from="24821181" to="290538999" fromTaz="origin-X4Y30" toTaz="destination-X19Y25" departLane="free" departSpeed="max"/>
    <trip id="hour_20_439" depart="72033.79" from="154716118" to="275056710" fromTaz="fringe-X7Y28" toTaz="destination-X4Y30" departLane="free" departSpeed="max"/>
    <trip id="hour_20_633" depart="72035.70" from="-171039413" to="57373256" fromTaz="grid-X20Y11" toTaz="fringe-X18Y9" departLane="free" departSpeed="max"/>
    <trip id="hour_20_823" depart="72035.75" from="11939531620" to="237582244" fromTaz="grid-X6Y21" toTaz="fringe-X1Y12" departLane="free" departSpeed="max"/>
    <trip id="hour_20_1091" depart="72036.35" from="185260338" to="4814772" fromTaz="origin-X20Y25" toTaz="grid-X22Y13" departLane="free" departSpeed="max"/>
    <trip id="hour_20_1167" depart="72036.58" from="24821181" to="290538999" fromTaz="origin-X4Y30" toTaz="destination-X19Y25" departLane="free" departSpeed="max"/>
    <trip id="hour_20_221" depart="72036.69" from="958174516" to="275056710" fromTaz="fringe-X1Y23" toTaz="destination-X4Y30" departLane="free" departSpeed="max"/>
    <trip id="hour_20_1237" depart="72037.22" from="24821181" to="290538999" fromTaz="origin-X4Y30" toTaz="destination-X19Y25" departLane="free" departSpeed="max"/>
    <trip id="hour_20_11" depart="72037.69" from="150270059" to="290538999" fromTaz="fringe-X16Y26" toTaz="destination-X19Y25" departLane="free" departSpeed="max"/>
    <trip id="hour_20_1186" depart="72037.71" from="24821181" to="290538999" fromTaz="origin-X4Y30" toTaz="destination-X19Y25" departLane="free" departSpeed="max"/>
    <trip id="hour_20_450" depart="72037.74" from="929240359" to="654765962" fromTaz="fringe-X7Y28" toTaz="fringe-X16Y17" departLane="free" departSpeed="max"/>
    <trip id="hour_20_1349" depart="72038.89" from="452051337" to="158347370" fromTaz="origin-X7Y1" toTaz="fringe-X19Y10" departLane="free" departSpeed="max"/>
    <trip id="hour_20_736" depart="72038.97" from="11939536497" to="654765962" fromTaz="grid-X3Y22" toTaz="fringe-X16Y17" departLane="free" departSpeed="max"/>
    <trip id="hour_20_863" depart="72039.29" from="71736664" to="87194347" fromTaz="grid-X8Y2" toTaz="fringe-X11Y4" departLane="free" departSpeed="max"/>
    <trip id="hour_20_238" depart="72039.43" from="958174516" to="-202156414" fromTaz="fringe-X1Y23" toTaz="grid-X4Y28" departLane="free" departSpeed="max"/>
    <trip id="hour_20_187" depart="72039.70" from="10666718" to="-326572945" fromTaz="fringe-X19Y23" toTaz="fringe-X7Y28" departLane="free" departSpeed="max"/>
    <trip id="hour_20_777" depart="72040.97" from="233960185" to="237582244" fromTaz="grid-X5Y21" toTaz="fringe-X1Y12" departLane="free" departSpeed="max"/>
    <trip id="hour_20_314" depart="72041.59" from="479358807" to="-11939541144" fromTaz="fringe-X22Y14" toTaz="grid-X2Y26" departLane="free" departSpeed="max"/>
    <trip id="hour_20_526" depart="72042.93" from="11939531515" to="158346014" fromTaz="grid-X10Y3" toTaz="fringe-X19Y10" departLane="free" departSpeed="max"/>
    <trip id="hour_20_1003" depart="72043.33" from="185260338" to="275056710" fromTaz="origin-X20Y25" toTaz="destination-X4Y30" departLane="free" departSpeed="max"/>
    <trip id="hour_20_1243" depart="72043.74" from="24821181" to="290538999" fromTaz="origin-X4Y30" toTaz="destination-X19Y25" departLane="free" departSpeed="max"/>
    <trip id="hour_20_292" depart="72043.83" from="-479358807" to="375714879" fromTaz="fringe-X22Y14" toTaz="fringe-X18Y26" departLane="free" departSpeed="max"/>
    <trip id="hour_20_1215" depart="72044.99" from="24821181" to="290538999" fromTaz="origin-X4Y30" toTaz="destination-X19Y25" departLane="free" departSpeed="max"/>
    <trip id="hour_20_912" depart="72046.85" from="987011928" to="-143075780" fromTaz="grid-X8Y3" toTaz="fringe-X20Y21" departLane="free" departSpeed="max"/>
    <trip id="hour_20_659" depart="72047.16" from="-1073403974" to="7706026" fromTaz="grid-X21Y12" toTaz="fringe-X18Y9" departLane="free" departSpeed="max"/>
    <trip id="hour_20_658" depart="72047.95" from="-11939543535" to="-375714879" fromTaz="grid-X21Y12" toTaz="fringe-X18Y26" departLane="free" departSpeed="max"/>
    <trip id="hour_20_609" depart="72048.07" from="-346397321" to="158346347" fromTaz="grid-X19Y7" toTaz="fringe-X19Y10" departLane="free" departSpeed="max"/>
    <trip id="hour_20_807" depart="72048.37" from="-11939533350" to="326572941" fromTaz="grid-X6Y16" toTaz="fringe-X7Y28" departLane="free" departSpeed="max"/>
    <trip id="hour_20_714" depart="72048.42" from="11939527071" to="307023793" fromTaz="grid-X23Y16" toTaz="fringe-X23Y15" departLane="free" departSpeed="max"/>
    <trip id="hour_20_1264" depart="72048.50" from="24821181" to="654765962" fromTaz="origin-X4Y30" toTaz="fringe-X16Y17" departLane="free" departSpeed="max"/>
    <trip id="hour_20_585" depart="72048.71" from="11939525979" to="4414008" fromTaz="grid-X14Y5" toTaz="fringe-X19Y10" departLane="free" departSpeed="max"/>
    <trip id="hour_20_507" depart="72048.84" from="-11939531321" to="275056710" fromTaz="grid-X10Y24" toTaz="destination-X4Y30" departLane="free" departSpeed="max"/>
    <trip id="hour_20_460" depart="72050.77" from="154716118" to="-11939532269" fromTaz="fringe-X7Y28" toTaz="grid-X10Y25" departLane="free" departSpeed="max"/>
    <trip id="hour_20_453" depart="72051.44" from="-326572945" to="11939539680" fromTaz="fringe-X7Y28" toTaz="grid-X10Y19" departLane="free" departSpeed="max"/>
    <trip id="hour_20_1225" depart="72051.58" from="24821181" to="290538999" fromTaz="origin-X4Y30" toTaz="destination-X19Y25" departLane="free" departSpeed="max"/>
    <trip id="hour_20_1321" depart="72051.87" from="452051337" to="164785142" fromTaz="origin-X7Y1" toTaz="fringe-X11Y4" departLane="free" departSpeed="max"/>
    <trip id="hour_20_1361" depart="72052.27" from="452051337" to="12968189#1" fromTaz="origin-X7Y1" toTaz="fringe-X20Y7" departLane="free" departSpeed="max"/>
    <trip id="hour_20_570" depart="72052.35" from="11939549119" to="275056710" fromTaz="grid-X12Y26" toTaz="destination-X4Y30" departLane="free" departSpeed="max"/>
    <trip id="hour_20_256" depart="72052.47" from="-12968189#1" to="4414008" fromTaz="fringe-X20Y7" toTaz="fringe-X19Y10" departLane="free" departSpeed="max"/>
    <trip id="hour_20_1120" depart="72052.49" from="24821181" to="290538999" fromTaz="origin-X4Y30" toTaz="destination-X19Y25" departLane="free" departSpeed="max"/>
    <trip id="hour_20_1168" depart="72052.75" from="24821181" to="290538999" fromTaz="origin-X4Y30" toTaz="destination-X19Y25" departLane="free" departSpeed="max"/>
    <trip id="hour_20_1122" depart="72052.77" from="24821181" to="290538999" fromTaz="origin-X4Y30" toTaz="destination-X19Y25" departLane="free" departSpeed="max"/>
    <trip id="hour_20_1330" depart="72053.34" from="452051337" to="7706026" fromTaz="origin-X7Y1" toTaz="fringe-X18Y9" departLane="free" departSpeed="max"/>
    <trip id="hour_20_129" depart="72054.70" from="158346347" to="11939527173" fromTaz="fringe-X19Y10" toTaz="grid-X11Y4" departLane="free" departSpeed="max"/>
    <trip id="hour_20_783" depart="72055.09" from="11939530726" to="929240359" fromTaz="grid-X5Y22" toTaz="fringe-X7Y28" departLane="free" departSpeed="max"/>
    <trip id="hour_20_539" depart="72056.51" from="735250189" to="11939538422" fromTaz="grid-X11Y25" toTaz="fringe-X5Y28" departLane="free" departSpeed="max"/>
    <trip id="hour_20_1066" depart="72057.47" from="185260338" to="307023793" fromTaz="origin-X20Y25" toTaz="fringe-X23Y15" departLane="free" departSpeed="max"/>
    <trip id="hour_20_1146" depart="72057.52" from="24821181" to="290538999" fromTaz="origin-X4Y30" toTaz="destination-X19Y25" departLane="free" departSpeed="max"/>
    <trip id="hour_20_871" depart="72059.07" from="316414576" to="307023793" fromTaz="grid-X8Y2" toTaz="fringe-X23Y15" departLane="free" departSpeed="max"/>
    <trip id="hour_20_1229" depart="72059.85" from="24821181" to="290538999" fromTaz="origin-X4Y30" toTaz="destination-X19Y25" departLane="free" departSpeed="max"/>
    <trip id="hour_20_1001" depart="72059.86" from="185260338" to="275056710" fromTaz="origin-X20Y25" toTaz="destination-X4Y30" departLane="free" departSpeed="max"/>
    <trip id="hour_20_1359" depart="72060.18" from="452051337" to="12968189#1" fromTaz="origin-X7Y1" toTaz="fringe-X20Y7" departLane="free" departSpeed="max"/>
    <trip id="hour_20_1284" depart="72061.67" from="24821181" to="-11939535982" fromTaz="origin-X4Y30" toTaz="grid-X15Y18" departLane="free" departSpeed="max"/>
    <trip id="hour_20_501" depart="72061.86" from="-11939540185" to="-37850228" fromTaz="grid-X10Y2" toTaz="fringe-X7Y0" departLane="free" departSpeed="max"/>
    <trip id="hour_20_1170" depart="72062.09" from="24821181" to="290538999" fromTaz="origin-X4Y30" toTaz="destination-X19Y25" departLane="free" departSpeed="max"/>
    <trip id="hour_20_698" depart="72062.23" from="-11939535125" to="290538999" fromTaz="grid-X23Y14" toTaz="destination-X19Y25" departLane="free" departSpeed="max"/>
    <trip id="hour_20_276" depart="72062.24" from="-121921459" to="11939529175" fromTaz="fringe-X22Y11" toTaz="grid-X11Y3" departLane="free" departSpeed="max"/>
    <trip id="hour_20_973" depart="72062.93" from="185260338" to="275056710" fromTaz="origin-X20Y25" toTaz="destination-X4Y30" departLane="free" departSpeed="max"/>
    <trip id="hour_20_96" depart="72065.06" from="375714879" to="-143075780" fromTaz="fringe-X18Y26" toTaz="fringe-X20Y21" departLane="free" departSpeed="max"/>
    <trip id="hour_20_152" depart="72065.72" from="10666718" to="275056710" fromTaz="fringe-X19Y23" toTaz="destination-X4Y30" departLane="free" departSpeed="max"/>
    <trip id="hour_20_368" depart="72066.32" from="-24793256" to="143075780" fromTaz="fringe-X23Y16" toTaz="fringe-X20Y21" departLane="free" departSpeed="max"/>
    <trip id="hour_20_1348" depart="72066.73" from="452051337" to="158346014" fromTaz="origin-X7Y1" toTaz="fringe-X19Y10" departLane="free" departSpeed="max"/>
    <trip id="hour_20_1042" depart="72067.57" from="185260338" to="-375714879" fromTaz="origin-X20Y25" toTaz="fringe-X18Y26" departLane="free" departSpeed="max"/>
    <trip id="hour_20_78" depart="72067.68" from="237130850" to="8896380" fromTaz="fringe-X16Y26" toTaz="fringe-X23Y15" departLane="free" departSpeed="max"/>
    <trip id="hour_20_26" depart="72069.48" from="150270059" to="-52045883" fromTaz="fringe-X16Y26" toTaz="fringe-X10Y1" departLane="free" departSpeed="max"/>
    <trip id="hour_20_517" depart="72070.72" from="11939532269" to="275056710" fromTaz="grid-X10Y25" toTaz="destination-X4Y30" departLane="free" departSpeed="max"/>
    <trip id="hour_20_869" depart="72072.84" from="-71736669" to="12968189#1" fromTaz="grid-X8Y2" toTaz="fringe-X20Y7" departLane="free" departSpeed="max"/>
    <trip id="hour_20_892" depart="72072.86" from="155094219" to="375714879" fromTaz="grid-X8Y3" toTaz="fringe-X18Y26" departLane="free" departSpeed="max"/>
    <trip id="hour_20_1277" depart="72073.44" from="24821181" to="-293517167" fromTaz="origin-X4Y30" toTaz="grid-X12Y19" departLane="free" departSpeed="max"/>
    <trip id="hour_20_749" depart="72075.43" from="11939543180" to="929240359" fromTaz="grid-X4Y14" toTaz="fringe-X7Y28" departLane="free" departSpeed="max"/>
    <trip id="hour_20_804" depart="72075.73" from="42484299" to="154716118" fromTaz="grid-X6Y15" toTaz="fringe-X7Y28" departLane="free" departSpeed="max"/>
    <trip id="hour_20_467" depart="72076.20" from="-326572945" to="199334828" fromTaz="fringe-X7Y28" toTaz="grid-X11Y25" departLane="free" departSpeed="max"/>
    <trip id="hour_20_379" depart="72076.24" from="24793256" to="307024527" fromTaz="fringe-X23Y16" toTaz="fringe-X23Y15" departLane="free" departSpeed="max"/>
    <trip id="hour_20_734" depart="72076.57" from="11939535885" to="-237582244" fromTaz="grid-X3Y14" toTaz="fringe-X1Y12" departLane="free" departSpeed="max"/>
    <trip id="hour_20_397" depart="72076.69" from="24793256" to="-11939537374" fromTaz="fringe-X23Y16" toTaz="grid-X2Y26" departLane="free" departSpeed="max"/>
    <trip id="hour_20_362" depart="72077.89" from="-24793256" to="375714879" fromTaz="fringe-X23Y16" toTaz="fringe-X18Y26" departLane="free" departSpeed="max"/>
    <trip id="hour_20_1239" depart="72078.42" from="24821181" to="290538999" fromTaz="origin-X4Y30" toTaz="destination-X19Y25" departLane="free" departSpeed="max"/>
    <trip id="hour_20_63" depart="72080.26" from="150270054" to="-143075780" fromTaz="fringe-X16Y26" toTaz="fringe-X20Y21" departLane="free" departSpeed="max"/>
    <trip id="hour_20_1246" depart="72080.52" from="24821181" to="290538999" fromTaz="origin-X4Y30" toTaz="destination-X19Y25" departLane="free" departSpeed="max"/>
    <trip id="hour_20_349" depart="72080.90" from="-24793256" to="11939526419" fromTaz="fringe-X23Y16" toTaz="fringe-X16Y26" departLane="free" departSpeed="max"/>
    <trip id="hour_20_1025" depart="72081.48" from="185260338" to="275056710" fromTaz="origin-X20Y25" toTaz="destination-X4Y30" departLane="free" departSpeed="max"/>
    <trip id="hour_20_1339" depart="72081.52" from="452051337" to="158346014" fromTaz="origin-X7Y1" toTaz="fringe-X19Y10" departLane="free" departSpeed="max"/>
    <trip id="hour_20_929" depart="72081.77" from="11939544848" to="307024526" fromTaz="grid-X8Y3" toTaz="fringe-X23Y15" departLane="free" departSpeed="max"/>
    <trip id="hour_20_51" depart="72082.19" from="326594940" to="326780461" fromTaz="fringe-X16Y26" toTaz="fringe-X19Y22" departLane="free" departSpeed="max"/>
    <trip id="hour_20_887" depart="72083.17" from="987011928" to="150270059" fromTaz="grid-X8Y3" toTaz="fringe-X16Y26" departLane="free" departSpeed="max"/>
    <trip id="hour_20_1019" depart="72083.20" from="185260338" to="275056710" fromTaz="origin-X20Y25" toTaz="destination-X4Y30" departLane="free" departSpeed="max"/>
    <trip id="hour_20_31" depart="72083.60" from="150270059" to="87194342" fromTaz="fringe-X16Y26" toTaz="fringe-X11Y4" departLane="free" departSpeed="max"/>
    <trip id="hour_20_412" depart="72083.99" from="-134105523" to="375714879" fromTaz="fringe-X24Y16" toTaz="fringe-X18Y26" departLane="free" departSpeed="max"/>
    <trip id="hour_20_1007" depart="72085.35" from="185260338" to="275056710" fromTaz="origin-X20Y25" toTaz="destination-X4Y30" departLane="free" departSpeed="max"/>
    <trip id="hour_20_473" depart="72085.88" from="929240359" to="-290456883" fromTaz="fringe-X7Y28" toTaz="grid-X12Y26" departLane="free" departSpeed="max"/>
    <trip id="hour_20_1262" depart="72087.73" from="24821181" to="654765962" fromTaz="origin-X4Y30" toTaz="fringe-X16Y17" departLane="free" departSpeed="max"/>
    <trip id="hour_20_752" depart="72088.31" from="-96581233" to="237582244" fromTaz="grid-X4Y23" toTaz="fringe-X1Y12" departLane="free" departSpeed="max"/>
    <trip id="hour_20_1396" depart="72088.32" from="452051337" to="-11939543535" fromTaz="origin-X7Y1" toTaz="grid-X21Y12" departLane="free" departSpeed="max"/>
    <trip id="hour_20_836" depart="72089.14" from="-711108807" to="326572945" fromTaz="grid-X7Y17" toTaz="fringe-X7Y28" departLane="free" departSpeed="max"/>
    <trip id="hour_20_591" depart="72089.32" from="-231309156" to="158346347" fromTaz="grid-X15Y6" toTaz="fringe-X19Y10" departLane="free" departSpeed="max"/>
    <trip id="hour_20_382" depart="72089.81" from="24793256" to="8896380" fromTaz="fringe-X23Y16" toTaz="fringe-X23Y15" departLane="free" departSpeed="max"/>
    <trip id="hour_20_451" depart="72089.91" from="-326572945" to="-654765962" fromTaz="fringe-X7Y28" toTaz="fringe-X16Y17" departLane="free" departSpeed="max"/>
    <trip id="hour_20_1285" depart="72089.97" from="24821181" to="11939535982" fromTaz="origin-X4Y30" toTaz="grid-X15Y18" departLane="free" departSpeed="max"/>
    <trip id="hour_20_425" depart="72091.39" from="-37850228" to="4414008" fromTaz="fringe-X7Y0" toTaz="fringe-X19Y10" departLane="free" departSpeed="max"/>
    <trip id="hour_20_1057" depart="72091.96" from="185260338" to="-143075780" fromTaz="origin-X20Y25" toTaz="fringe-X20Y21" departLane="free" departSpeed="max"/>
    <trip id="hour_20_764" depart="72092.51" from="-11939532936" to="237582244" fromTaz="grid-X5Y18" toTaz="fringe-X1Y12" departLane="free" departSpeed="max"/>
    <trip id="hour_20_873" depart="72092.59" from="71736662" to="-326572945" fromTaz="grid-X8Y2" toTaz="fringe-X7Y28" departLane="free" departSpeed="max"/>
    <trip id="hour_20_722" depart="72092.70" from="40192684" to="275056710" fromTaz="grid-X2Y14" toTaz="destination-X4Y30" departLane="free" departSpeed="max"/>
    <trip id="hour_20_832" depart="72093.05" from="161925775" to="275056710" fromTaz="grid-X7Y17" toTaz="destination-X4Y30" departLane="free" departSpeed="max"/>
    <trip id="hour_20_657" depart="72093.36" from="-1009757382" to="87194342" fromTaz="grid-X21Y12" toTaz="fringe-X11Y4" departLane="free" departSpeed="max"/>
    <trip id="hour_20_1300" depart="72093.70" from="452051337" to="290538999" fromTaz="origin-X7Y1" toTaz="destination-X19Y25" departLane="free" departSpeed="max"/>
    <trip id="hour_20_582" depart="72094.44" from="164786400" to="37850228" fromTaz="grid-X12Y4" toTaz="fringe-X7Y0" departLane="free" departSpeed="max"/>
    <trip id="hour_20_808" depart="72095.19" from="-11939549231" to="275056710" fromTaz="grid-X6Y17" toTaz="destination-X4Y30" departLane="free" departSpeed="max"/>
    <trip id="hour_20_341" depart="72096.24" from="-24793256" to="275056710" fromTaz="fringe-X23Y16" toTaz="destination-X4Y30" departLane="free" departSpeed="max"/>
    <trip id="hour_20_1307" depart="72096.51" from="452051337" to="290538999" fromTaz="origin-X7Y1" toTaz="destination-X19Y25" departLane="free" departSpeed="max"/>
    <trip id="hour_20_277" depart="72096.78" from="-121921459" to="231309154" fromTaz="fringe-X22Y11" toTaz="grid-X15Y6" departLane="free" departSpeed="max"/>
    <trip id="hour_20_417" depart="72097.21" from="40425140" to="275056710" fromTaz="fringe-X4Y29" toTaz="destination-X4Y30" departLane="free" departSpeed="max"/>
    <trip id="hour_20_1274" depart="72097.40" from="24821181" to="-11939525406" fromTaz="origin-X4Y30" toTaz="grid-X11Y26" departLane="free" departSpeed="max"/>
    <trip id="hour_20_755" depart="72097.62" from="11939524921" to="275056710" fromTaz="grid-X4Y25" toTaz="destination-X4Y30" departLane="free" departSpeed="max"/>
    <trip id="hour_20_354" depart="72097.67" from="24793256" to="-375714879" fromTaz="fringe-X23Y16" toTaz="fringe-X18Y26" departLane="free" departSpeed="max"/>
    <trip id="hour_20_20" depart="72098.13" from="24711107" to="275056710" fromTaz="fringe-X16Y26" toTaz="destination-X4Y30" departLane="free" departSpeed="max"/>
    <trip id="hour_20_1397" depart="72098.16" from="452051337" to="-121921452" fromTaz="origin-X7Y1" toTaz="grid-X22Y11" departLane="free" departSpeed="max"/>
    <trip id="hour_20_686" depart="72098.71" from="-161227126" to="307023793" fromTaz="grid-X22Y13" toTaz="fringe-X23Y15" departLane="free" departSpeed="max"/>
    <trip id="hour_20_1148" depart="72098.86" from="24821181" to="290538999" fromTaz="origin-X4Y30" toTaz="destination-X19Y25" departLane="free" departSpeed="max"/>
    <trip id="hour_20_797" depart="72099.14" from="366950473" to="158346347" fromTaz="grid-X5Y4" toTaz="fringe-X19Y10" departLane="free" departSpeed="max"/>
    <trip id="hour_20_821" depart="72099.77" from="929258351" to="275056710" fromTaz="grid-X6Y21" toTaz="destination-X4Y30" departLane="free" departSpeed="max"/>
    <trip id="hour_20_1050" depart="72101.08" from="185260338" to="326780461" fromTaz="origin-X20Y25" toTaz="fringe-X19Y22" departLane="free" departSpeed="max"/>
    <trip id="hour_20_201" depart="72101.43" from="-237582244" to="-531062205" fromTaz="fringe-X1Y12" toTaz="grid-X12Y19" departLane="free" departSpeed="max"/>
    <trip id="hour_20_611" depart="72101.59" from="345140247" to="4414008" fromTaz="grid-X19Y8" toTaz="fringe-X19Y10" departLane="free" departSpeed="max"/>
    <trip id="hour_20_43" depart="72101.67" from="326594940" to="7706026" fromTaz="fringe-X16Y26" toTaz="fringe-X18Y9" departLane="free" departSpeed="max"/>
    <trip id="hour_20_1325" depart="72102.43" from="452051337" to="164785142" fromTaz="origin-X7Y1" toTaz="fringe-X11Y4" departLane="free" departSpeed="max"/>
    <trip id="hour_20_916" depart="72103.43" from="-71890080" to="12968189#1" fromTaz="grid-X8Y3" toTaz="fringe-X20Y7" departLane="free" departSpeed="max"/>
    <trip id="hour_20_1136" depart="72103.64" from="24821181" to="290538999" fromTaz="origin-X4Y30" toTaz="destination-X19Y25" departLane="free" departSpeed="max"/>
    <trip id="hour_20_1012" depart="72104.56" from="185260338" to="275056710" fromTaz="origin-X20Y25" toTaz="destination-X4Y30" departLane="free" departSpeed="max"/>
    <trip id="hour_20_442" depart="72105.18" from="-326572945" to="275056710" fromTaz="fringe-X7Y28" toTaz="destination-X4Y30" departLane="free" departSpeed="max"/>
    <trip id="hour_20_593" depart="72106.40" from="-247882785" to="-37850228" fromTaz="grid-X15Y6" toTaz="fringe-X7Y0" departLane="free" departSpeed="max"/>
    <trip id="hour_20_215" depart="72106.83" from="-185406398" to="326572945" fromTaz="fringe-X1Y22" toTaz="fringe-X7Y28" departLane="free" departSpeed="max"/>
    <trip id="hour_20_344" depart="72106.94" from="24793256" to="275056710" fromTaz="fringe-X23Y16" toTaz="destination-X4Y30" departLane="free" departSpeed="max"/>
    <trip id="hour_20_110" depart="72107.79" from="7706026" to="158347370" fromTaz="fringe-X18Y9" toTaz="fringe-X19Y10" departLane="free" departSpeed="max"/>
    <trip id="hour_20_315" depart="72107.93" from="479358807" to="109793913" fromTaz="fringe-X22Y14" toTaz="grid-X3Y26" departLane="free" departSpeed="max"/>
    <trip id="hour_20_420" depart="72107.96" from="-40425140" to="275056710" fromTaz="fringe-X4Y29" toTaz="destination-X4Y30" departLane="free" departSpeed="max"/>
    <trip id="hour_20_1255" depart="72108.03" from="24821181" to="290538999" fromTaz="origin-X4Y30" toTaz="destination-X19Y25" departLane="free" departSpeed="max"/>
    <trip id="hour_20_264" depart="72108.11" from="121921459" to="164785144" fromTaz="fringe-X22Y11" toTaz="fringe-X11Y4" departLane="free" departSpeed="max"/>
    <trip id="hour_20_1195" depart="72108.42" from="24821181" to="290538999" fromTaz="origin-X4Y30" toTaz="destination-X19Y25" departLane="free" departSpeed="max"/>
    <trip id="hour_20_50" depart="72108.52" from="11939526419" to="-326780459" fromTaz="fringe-X16Y26" toTaz="fringe-X19Y22" departLane="free" departSpeed="max"/>
    <trip id="hour_20_511" depart="72109.02" from="1081322051" to="154716118" fromTaz="grid-X10Y24" toTaz="fringe-X7Y28" departLane="free" departSpeed="max"/>
    <trip id="hour_20_746" depart="72110.09" from="11939530906" to="275056710" fromTaz="grid-X4Y14" toTaz="destination-X4Y30" departLane="free" departSpeed="max"/>