<?xml version="1.0" encoding="UTF-8"?>

<routes xmlns:xsi="http://www.w3.org/2001/XMLSchema-instance" xsi:noNamespaceSchemaLocation="http://sumo.dlr.de/xsd/routes_file.xsd">
    <trip id="hour_15_2047" depart="54000.75" from="-256323818" to="452051334" fromTaz="grid-X7Y3" toTaz="destination-X7Y1" departLane="free" departSpeed="max"/>
    <trip id="hour_15_174" depart="54000.81" from="150270059" to="452051334" fromTaz="fringe-X16Y26" toTaz="destination-X7Y1" departLane="free" departSpeed="max"/>
    <trip id="hour_15_2523" depart="54000.90" from="24821181" to="290538999" fromTaz="origin-X4Y30" toTaz="destination-X19Y25" departLane="free" departSpeed="max"/>
    <trip id="hour_15_2303" depart="54001.24" from="185260338" to="275056710" fromTaz="origin-X20Y25" toTaz="destination-X4Y30" departLane="free" departSpeed="max"/>
    <trip id="hour_15_763" depart="54003.08" from="12968189#1" to="452051334" fromTaz="fringe-X20Y7" toTaz="destination-X7Y1" departLane="free" departSpeed="max"/>
    <trip id="hour_15_685" depart="54003.14" from="143075780" to="150270059" fromTaz="fringe-X20Y21" toTaz="fringe-X16Y26" departLane="free" departSpeed="max"/>
    <trip id="hour_15_2357" depart="54003.46" from="185260338" to="275056710" fromTaz="origin-X20Y25" toTaz="destination-X4Y30" departLane="free" departSpeed="max"/>
    <trip id="hour_15_77" depart="54003.84" from="164785142" to="-52045883" fromTaz="fringe-X11Y4" toTaz="fringe-X10Y1" departLane="free" departSpeed="max"/>
    <trip id="hour_15_1575" depart="54004.33" from="-171024561" to="452051334" fromTaz="grid-X20Y11" toTaz="destination-X7Y1" departLane="free" departSpeed="max"/>
    <trip id="hour_15_1400" depart="54004.55" from="11939528855" to="87194347" fromTaz="grid-X16Y6" toTaz="fringe-X11Y4" departLane="free" departSpeed="max"/>
    <trip id="hour_15_490" depart="54004.77" from="10666718" to="290538999" fromTaz="fringe-X19Y23" toTaz="destination-X19Y25" departLane="free" departSpeed="max"/>
    <trip id="hour_15_818" depart="54005.00" from="-121921459" to="452051334" fromTaz="fringe-X22Y11" toTaz="destination-X7Y1" departLane="free" departSpeed="max"/>
    <trip id="hour_15_1990" depart="54005.15" from="-11939538443" to="452051334" fromTaz="grid-X6Y14" toTaz="destination-X7Y1" departLane="free" departSpeed="max"/>
    <trip id="hour_15_2586" depart="54005.67" from="24821181" to="290538999" fromTaz="origin-X4Y30" toTaz="destination-X19Y25" departLane="free" departSpeed="max"/>
    <trip id="hour_15_2479" depart="54006.09" from="24821181" to="290538999" fromTaz="origin-X4Y30" toTaz="destination-X19Y25" departLane="free" departSpeed="max"/>
    <trip id="hour_15_1726" depart="54006.35" from="11939543878" to="307024526" fromTaz="grid-X22Y11" toTaz="fringe-X23Y15" departLane="free" departSpeed="max"/>
    <trip id="hour_15_58" depart="54006.36" from="164785142" to="452051334" fromTaz="fringe-X11Y4" toTaz="destination-X7Y1" departLane="free" departSpeed="max"/>
    <trip id="hour_15_807" depart="54006.37" from="-12968189#1" to="345140247" fromTaz="fringe-X20Y7" toTaz="grid-X19Y8" departLane="free" departSpeed="max"/>
    <trip id="hour_15_2027" depart="54006.40" from="-11939534360" to="4414008" fromTaz="grid-X7Y2" toTaz="fringe-X19Y10" departLane="free" departSpeed="max"/>
    <trip id="hour_15_478" depart="54006.97" from="326780461" to="-143075776" fromTaz="fringe-X19Y22" toTaz="fringe-X20Y21" departLane="free" departSpeed="max"/>
    <trip id="hour_15_509" depart="54007.29" from="10666718" to="290538999" fromTaz="fringe-X19Y23" toTaz="destination-X19Y25" departLane="free" departSpeed="max"/>
    <trip id="hour_15_2489" depart="54007.37" from="24821181" to="290538999" fromTaz="origin-X4Y30" toTaz="destination-X19Y25" departLane="free" departSpeed="max"/>
    <trip id="hour_15_40" depart="54007.38" from="87194342" to="452051334" fromTaz="fringe-X11Y4" toTaz="destination-X7Y1" departLane="free" departSpeed="max"/>
    <trip id="hour_15_2709" depart="54007.43" from="24821181" to="290538999" fromTaz="origin-X4Y30" toTaz="destination-X19Y25" departLane="free" departSpeed="max"/>
    <trip id="hour_15_112" depart="54007.90" from="164785144" to="-125028094" fromTaz="fringe-X11Y4" toTaz="grid-X5Y6" departLane="free" departSpeed="max"/>
    <trip id="hour_15_2160" depart="54008.03" from="-453135924" to="452051334" fromTaz="grid-X9Y2" toTaz="destination-X7Y1" departLane="free" departSpeed="max"/>
    <trip id="hour_15_1365" depart="54008.07" from="-396807590" to="57373256" fromTaz="grid-X15Y6" toTaz="fringe-X18Y9" departLane="free" departSpeed="max"/>
    <trip id="hour_15_1530" depart="54008.39" from="166417995" to="452051334" fromTaz="grid-X19Y8" toTaz="destination-X7Y1" departLane="free" departSpeed="max"/>
    <trip id="hour_15_1872" depart="54008.44" from="-1148118307" to="958174516" fromTaz="grid-X3Y26" toTaz="fringe-X1Y23" departLane="free" departSpeed="max"/>
    <trip id="hour_15_1908" depart="54008.62" from="-11939524919" to="275056710" fromTaz="grid-X4Y25" toTaz="destination-X4Y30" departLane="free" departSpeed="max"/>
    <trip id="hour_15_513" depart="54008.91" from="-10666718" to="290538999" fromTaz="fringe-X19Y23" toTaz="destination-X19Y25" departLane="free" departSpeed="max"/>
    <trip id="hour_15_1944" depart="54009.29" from="11939545654" to="326572945" fromTaz="grid-X5Y22" toTaz="fringe-X7Y28" departLane="free" departSpeed="max"/>
    <trip id="hour_15_1909" depart="54009.42" from="11939524919" to="-654765962" fromTaz="grid-X4Y25" toTaz="fringe-X16Y17" departLane="free" departSpeed="max"/>
    <trip id="hour_15_1606" depart="54010.16" from="-695002984" to="307024526" fromTaz="grid-X20Y7" toTaz="fringe-X23Y15" departLane="free" departSpeed="max"/>
    <trip id="hour_15_2065" depart="54010.87" from="-71736662" to="158346014" fromTaz="grid-X8Y2" toTaz="fringe-X19Y10" departLane="free" departSpeed="max"/>
    <trip id="hour_15_229" depart="54011.12" from="24711107" to="-143075776" fromTaz="fringe-X16Y26" toTaz="fringe-X20Y21" departLane="free" departSpeed="max"/>
    <trip id="hour_15_2454" depart="54011.33" from="185260338" to="-143075776" fromTaz="origin-X20Y25" toTaz="fringe-X20Y21" departLane="free" departSpeed="max"/>
    <trip id="hour_15_2840" depart="54011.42" from="24821181" to="290538999" fromTaz="origin-X4Y30" toTaz="destination-X19Y25" departLane="free" departSpeed="max"/>
    <trip id="hour_15_3061" depart="54011.63" from="452051337" to="12968189#1" fromTaz="origin-X7Y1" toTaz="fringe-X20Y7" departLane="free" departSpeed="max"/>
    <trip id="hour_15_2548" depart="54012.68" from="24821181" to="290538999" fromTaz="origin-X4Y30" toTaz="destination-X19Y25" departLane="free" departSpeed="max"/>
    <trip id="hour_15_2619" depart="54013.10" from="24821181" to="290538999" fromTaz="origin-X4Y30" toTaz="destination-X19Y25" departLane="free" departSpeed="max"/>
    <trip id="hour_15_134" depart="54013.17" from="87194347" to="71736669" fromTaz="fringe-X11Y4" toTaz="grid-X8Y2" departLane="free" departSpeed="max"/>
    <trip id="hour_15_1789" depart="54013.23" from="11939525710" to="8896380" fromTaz="grid-X22Y14" toTaz="fringe-X23Y15" departLane="free" departSpeed="max"/>
    <trip id="hour_15_1708" depart="54013.26" from="158414578" to="307023793" fromTaz="grid-X21Y12" toTaz="fringe-X23Y15" departLane="free" departSpeed="max"/>
    <trip id="hour_15_64" depart="54013.56" from="164785142" to="452051334" fromTaz="fringe-X11Y4" toTaz="destination-X7Y1" departLane="free" departSpeed="max"/>
    <trip id="hour_15_1825" depart="54014.02" from="11939524969" to="452051334" fromTaz="grid-X24Y15" toTaz="destination-X7Y1" departLane="free" departSpeed="max"/>
    <trip id="hour_15_3152" depart="54014.25" from="452051337" to="-11939528386" fromTaz="origin-X7Y1" toTaz="grid-X20Y9" departLane="free" departSpeed="max"/>
    <trip id="hour_15_1999" depart="54014.41" from="633043943" to="654765962" fromTaz="grid-X6Y20" toTaz="fringe-X16Y17" departLane="free" departSpeed="max"/>
    <trip id="hour_15_3149" depart="54014.94" from="452051337" to="695002984" fromTaz="origin-X7Y1" toTaz="grid-X20Y7" departLane="free" departSpeed="max"/>
    <trip id="hour_15_2030" depart="54015.00" from="11939545087" to="-12968189#1" fromTaz="grid-X7Y2" toTaz="fringe-X20Y7" departLane="free" departSpeed="max"/>
    <trip id="hour_15_1485" depart="54015.11" from="-56469031" to="-37850228" fromTaz="grid-X17Y7" toTaz="fringe-X7Y0" departLane="free" departSpeed="max"/>
    <trip id="hour_15_1010" depart="54015.27" from="40425140" to="275056710" fromTaz="fringe-X4Y29" toTaz="destination-X4Y30" departLane="free" departSpeed="max"/>
    <trip id="hour_15_3082" depart="54015.54" from="452051337" to="479358807" fromTaz="origin-X7Y1" toTaz="fringe-X22Y14" departLane="free" departSpeed="max"/>
    <trip id="hour_15_782" depart="54015.70" from="-12968189#1" to="287201448" fromTaz="fringe-X20Y7" toTaz="fringe-X18Y9" departLane="free" departSpeed="max"/>
    <trip id="hour_15_1002" depart="54015.75" from="40425140" to="275056710" fromTaz="fringe-X4Y29" toTaz="destination-X4Y30" departLane="free" departSpeed="max"/>
    <trip id="hour_15_2353" depart="54015.90" from="185260338" to="275056710" fromTaz="origin-X20Y25" toTaz="destination-X4Y30" departLane="free" departSpeed="max"/>
    <trip id="hour_15_2703" depart="54016.66" from="24821181" to="290538999" fromTaz="origin-X4Y30" toTaz="destination-X19Y25" departLane="free" departSpeed="max"/>
    <trip id="hour_15_2140" depart="54016.72" from="71890079" to="8896380" fromTaz="grid-X8Y3" toTaz="fringe-X23Y15" departLane="free" departSpeed="max"/>
    <trip id="hour_15_3094" depart="54016.83" from="452051337" to="8896380" fromTaz="origin-X7Y1" toTaz="fringe-X23Y15" departLane="free" departSpeed="max"/>
    <trip id="hour_15_428" depart="54017.18" from="-375714879" to="307023793" fromTaz="fringe-X18Y26" toTaz="fringe-X23Y15" departLane="free" departSpeed="max"/>
    <trip id="hour_15_169" depart="54017.83" from="24711107" to="452051334" fromTaz="fringe-X16Y26" toTaz="destination-X7Y1" departLane="free" departSpeed="max"/>
    <trip id="hour_15_26" depart="54018.13" from="-52045883" to="451730171" fromTaz="fringe-X10Y1" toTaz="grid-X14Y5" departLane="free" departSpeed="max"/>
    <trip id="hour_15_10" depart="54018.39" from="52045883" to="452051334" fromTaz="fringe-X10Y1" toTaz="destination-X7Y1" departLane="free" departSpeed="max"/>
    <trip id="hour_15_205" depart="54018.68" from="11939526419" to="326780459" fromTaz="fringe-X16Y26" toTaz="fringe-X19Y22" departLane="free" departSpeed="max"/>
    <trip id="hour_15_389" depart="54019.61" from="375714879" to="-143075780" fromTaz="fringe-X18Y26" toTaz="fringe-X20Y21" departLane="free" departSpeed="max"/>
    <trip id="hour_15_1077" depart="54019.64" from="5213455" to="275056710" fromTaz="fringe-X7Y28" toTaz="destination-X4Y30" departLane="free" departSpeed="max"/>
    <trip id="hour_15_2326" depart="54019.73" from="185260338" to="275056710" fromTaz="origin-X20Y25" toTaz="destination-X4Y30" departLane="free" departSpeed="max"/>
    <trip id="hour_15_462" depart="54019.74" from="287201448" to="8896380" fromTaz="fringe-X18Y9" toTaz="fringe-X23Y15" departLane="free" departSpeed="max"/>
    <trip id="hour_15_904" depart="54019.77" from="-479358807" to="11939529655" fromTaz="fringe-X22Y14" toTaz="grid-X7Y3" departLane="free" departSpeed="max"/>
    <trip id="hour_15_2271" depart="54019.83" from="185260338" to="275056710" fromTaz="origin-X20Y25" toTaz="destination-X4Y30" departLane="free" departSpeed="max"/>
    <trip id="hour_15_2471" depart="54020.18" from="24821181" to="290538999" fromTaz="origin-X4Y30" toTaz="destination-X19Y25" departLane="free" departSpeed="max"/>
    <trip id="hour_15_574" depart="54020.20" from="185406398" to="326572945" fromTaz="fringe-X1Y22" toTaz="fringe-X7Y28" departLane="free" departSpeed="max"/>
    <trip id="hour_15_2182" depart="54020.25" from="11939530736" to="275056710" fromTaz="grid-X9Y24" toTaz="destination-X4Y30" departLane="free" departSpeed="max"/>
    <trip id="hour_15_2298" depart="54020.36" from="185260338" to="275056710" fromTaz="origin-X20Y25" toTaz="destination-X4Y30" departLane="free" departSpeed="max"/>
    <trip id="hour_15_700" depart="54020.47" from="143075780" to="375714879" fromTaz="fringe-X20Y21" toTaz="fringe-X18Y26" departLane="free" departSpeed="max"/>
    <trip id="hour_15_451" depart="54020.98" from="5058806" to="452051334" fromTaz="fringe-X18Y9" toTaz="destination-X7Y1" departLane="free" departSpeed="max"/>
    <trip id="hour_15_1916" depart="54021.26" from="-227025891" to="654765962" fromTaz="grid-X4Y26" toTaz="fringe-X16Y17" departLane="free" departSpeed="max"/>
    <trip id="hour_15_2607" depart="54021.41" from="24821181" to="290538999" fromTaz="origin-X4Y30" toTaz="destination-X19Y25" departLane="free" departSpeed="max"/>
    <trip id="hour_15_2971" depart="54021.44" from="24821181" to="-110826572" fromTaz="origin-X4Y30" toTaz="grid-X9Y22" departLane="free" departSpeed="max"/>
    <trip id="hour_15_1031" depart="54022.28" from="40425140" to="958174516" fromTaz="fringe-X4Y29" toTaz="fringe-X1Y23" departLane="free" departSpeed="max"/>
    <trip id="hour_15_1971" depart="54022.64" from="-142676274" to="275056710" fromTaz="grid-X5Y28" toTaz="destination-X4Y30" departLane="free" departSpeed="max"/>
    <trip id="hour_15_2844" depart="54022.69" from="24821181" to="290538999" fromTaz="origin-X4Y30" toTaz="destination-X19Y25" departLane="free" departSpeed="max"/>
    <trip id="hour_15_290" depart="54023.03" from="150270059" to="11939525710" fromTaz="fringe-X16Y26" toTaz="grid-X22Y14" departLane="free" departSpeed="max"/>
    <trip id="hour_15_368" depart="54023.05" from="375714879" to="-143075780" fromTaz="fringe-X18Y26" toTaz="fringe-X20Y21" departLane="free" departSpeed="max"/>
    <trip id="hour_15_779" depart="54023.51" from="-12968189#1" to="57373256" fromTaz="fringe-X20Y7" toTaz="fringe-X18Y9" departLane="free" departSpeed="max"/>
    <trip id="hour_15_604" depart="54023.70" from="958174516" to="-11939537374" fromTaz="fringe-X1Y23" toTaz="grid-X2Y26" departLane="free" departSpeed="max"/>
    <trip id="hour_15_1541" depart="54024.00" from="-11939529179" to="452051334" fromTaz="grid-X19Y9" toTaz="destination-X7Y1" departLane="free" departSpeed="max"/>
    <trip id="hour_15_588" depart="54024.98" from="958174516" to="275056710" fromTaz="fringe-X1Y23" toTaz="destination-X4Y30" departLane="free" departSpeed="max"/>
    <trip id="hour_15_3087" depart="54025.12" from="452051337" to="8896380" fromTaz="origin-X7Y1" toTaz="fringe-X23Y15" departLane="free" departSpeed="max"/>
    <trip id="hour_15_1823" depart="54025.12" from="61430639" to="452051334" fromTaz="grid-X23Y16" toTaz="destination-X7Y1" departLane="free" departSpeed="max"/>
    <trip id="hour_15_19" depart="54025.67" from="-52045883" to="287201448" fromTaz="fringe-X10Y1" toTaz="fringe-X18Y9" departLane="free" departSpeed="max"/>
    <trip id="hour_15_1643" depart="54025.86" from="-122719360" to="7706026" fromTaz="grid-X21Y11" toTaz="fringe-X18Y9" departLane="free" departSpeed="max"/>
    <trip id="hour_15_815" depart="54026.00" from="121921459" to="452051334" fromTaz="fringe-X22Y11" toTaz="destination-X7Y1" departLane="free" departSpeed="max"/>
    <trip id="hour_15_1489" depart="54026.38" from="364433360" to="452051334" fromTaz="grid-X18Y7" toTaz="destination-X7Y1" departLane="free" departSpeed="max"/>
    <trip id="hour_15_1352" depart="54026.53" from="396807590" to="290538999" fromTaz="grid-X15Y6" toTaz="destination-X19Y25" departLane="free" departSpeed="max"/>
    <trip id="hour_15_1156" depart="54026.98" from="929240359" to="-51850830" fromTaz="fringe-X7Y28" toTaz="grid-X4Y27" departLane="free" departSpeed="max"/>
    <trip id="hour_15_55" depart="54027.48" from="164785142" to="452051334" fromTaz="fringe-X11Y4" toTaz="destination-X7Y1" departLane="free" departSpeed="max"/>
    <trip id="hour_15_3050" depart="54027.56" from="452051337" to="158346014" fromTaz="origin-X7Y1" toTaz="fringe-X19Y10" departLane="free" departSpeed="max"/>
    <trip id="hour_15_2646" depart="54027.65" from="24821181" to="290538999" fromTaz="origin-X4Y30" toTaz="destination-X19Y25" departLane="free" departSpeed="max"/>
    <trip id="hour_15_1222" depart="54028.78" from="-1081322051" to="275056710" fromTaz="grid-X10Y24" toTaz="destination-X4Y30" departLane="free" departSpeed="max"/>
    <trip id="hour_15_1093" depart="54029.50" from="929240359" to="654765962" fromTaz="fringe-X7Y28" toTaz="fringe-X16Y17" departLane="free" departSpeed="max"/>
    <trip id="hour_15_2287" depart="54029.99" from="185260338" to="275056710" fromTaz="origin-X20Y25" toTaz="destination-X4Y30" departLane="free" departSpeed="max"/>
    <trip id="hour_15_3013" depart="54030.05" from="452051337" to="164785144" fromTaz="origin-X7Y1" toTaz="fringe-X11Y4" departLane="free" departSpeed="max"/>
    <trip id="hour_15_2730" depart="54030.10" from="24821181" to="290538999" fromTaz="origin-X4Y30" toTaz="destination-X19Y25" departLane="free" departSpeed="max"/>
    <trip id="hour_15_2761" depart="54030.18" from="24821181" to="290538999" fromTaz="origin-X4Y30" toTaz="destination-X19Y25" departLane="free" departSpeed="max"/>
    <trip id="hour_15_78" depart="54030.86" from="164785142" to="7706026" fromTaz="fringe-X11Y4" toTaz="fringe-X18Y9" departLane="free" departSpeed="max"/>
    <trip id="hour_15_2702" depart="54030.87" from="24821181" to="290538999" fromTaz="origin-X4Y30" toTaz="destination-X19Y25" departLane="free" departSpeed="max"/>
    <trip id="hour_15_498" depart="54030.89" from="-10666718" to="290538999" fromTaz="fringe-X19Y23" toTaz="destination-X19Y25" departLane="free" departSpeed="max"/>
    <trip id="hour_15_2245" depart="54030.97" from="185260338" to="275056710" fromTaz="origin-X20Y25" toTaz="destination-X4Y30" departLane="free" departSpeed="max"/>
    <trip id="hour_15_2645" depart="54031.13" from="24821181" to="290538999" fromTaz="origin-X4Y30" toTaz="destination-X19Y25" departLane="free" departSpeed="max"/>
    <trip id="hour_15_546" depart="54031.44" from="-10666718" to="375714879" fromTaz="fringe-X19Y23" toTaz="fringe-X18Y26" departLane="free" departSpeed="max"/>
    <trip id="hour_15_239" depart="54031.69" from="237130850" to="-12968189#1" fromTaz="fringe-X16Y26" toTaz="fringe-X20Y7" departLane="free" departSpeed="max"/>
    <trip id="hour_15_1798" depart="54031.73" from="11939535125" to="290538999" fromTaz="grid-X23Y14" toTaz="destination-X19Y25" departLane="free" departSpeed="max"/>
    <trip id="hour_15_2674" depart="54031.88" from="24821181" to="290538999" fromTaz="origin-X4Y30" toTaz="destination-X19Y25" departLane="free" departSpeed="max"/>
    <trip id="hour_15_971" depart="54032.26" from="24793256" to="452051334" fromTaz="fringe-X23Y16" toTaz="destination-X7Y1" departLane="free" departSpeed="max"/>
    <trip id="hour_15_256" depart="54032.34" from="11939526419" to="307024526" fromTaz="fringe-X16Y26" toTaz="fringe-X23Y15" departLane="free" departSpeed="max"/>
    <trip id="hour_15_2816" depart="54032.76" from="24821181" to="290538999" fromTaz="origin-X4Y30" toTaz="destination-X19Y25" departLane="free" departSpeed="max"/>
    <trip id="hour_15_2001" depart="54032.93" from="11939544446" to="452051334" fromTaz="grid-X6Y3" toTaz="destination-X7Y1" departLane="free" departSpeed="max"/>
    <trip id="hour_15_2116" depart="54032.95" from="-987011928" to="287201448" fromTaz="grid-X8Y3" toTaz="fringe-X18Y9" departLane="free" departSpeed="max"/>
    <trip id="hour_15_1254" depart="54033.34" from="11939525165" to="275056710" fromTaz="grid-X11Y25" toTaz="destination-X4Y30" departLane="free" departSpeed="max"/>
    <trip id="hour_15_224" depart="54033.49" from="326594940" to="143075776" fromTaz="fringe-X16Y26" toTaz="fringe-X20Y21" departLane="free" departSpeed="max"/>
    <trip id="hour_15_476" depart="54033.79" from="-326780459" to="143075776" fromTaz="fringe-X19Y22" toTaz="fringe-X20Y21" departLane="free" departSpeed="max"/>
    <trip id="hour_15_801" depart="54034.92" from="12968189#1" to="8896380" fromTaz="fringe-X20Y7" toTaz="fringe-X23Y15" departLane="free" departSpeed="max"/>
    <trip id="hour_15_2794" depart="54035.90" from="24821181" to="290538999" fromTaz="origin-X4Y30" toTaz="destination-X19Y25" departLane="free" departSpeed="max"/>
    <trip id="hour_15_695" depart="54036.13" from="143075780" to="375714879" fromTaz="fringe-X20Y21" toTaz="fringe-X18Y26" departLane="free" departSpeed="max"/>
    <trip id="hour_15_1208" depart="54036.35" from="326572945" to="84035861" fromTaz="fringe-X7Y28" toTaz="grid-X9Y24" departLane="free" departSpeed="max"/>
    <trip id="hour_15_244" depart="54036.69" from="150270054" to="-479358807" fromTaz="fringe-X16Y26" toTaz="fringe-X22Y14" departLane="free" departSpeed="max"/>
    <trip id="hour_15_2258" depart="54037.00" from="185260338" to="275056710" fromTaz="origin-X20Y25" toTaz="destination-X4Y30" departLane="free" departSpeed="max"/>
    <trip id="hour_15_1753" depart="54037.17" from="119226469" to="452051334" fromTaz="grid-X22Y13" toTaz="destination-X7Y1" departLane="free" departSpeed="max"/>
    <trip id="hour_15_1338" depart="54037.22" from="11939548477" to="307023793" fromTaz="grid-X15Y5" toTaz="fringe-X23Y15" departLane="free" departSpeed="max"/>
    <trip id="hour_15_1707" depart="54037.39" from="1073403974" to="12968189#1" fromTaz="grid-X21Y12" toTaz="fringe-X20Y7" departLane="free" departSpeed="max"/>
    <trip id="hour_15_766" depart="54037.58" from="-12968189#1" to="452051334" fromTaz="fringe-X20Y7" toTaz="destination-X7Y1" departLane="free" departSpeed="max"/>
    <trip id="hour_15_12" depart="54037.69" from="-52045883" to="452051334" fromTaz="fringe-X10Y1" toTaz="destination-X7Y1" departLane="free" departSpeed="max"/>
    <trip id="hour_15_497" depart="54037.70" from="326780462" to="290538999" fromTaz="fringe-X19Y23" toTaz="destination-X19Y25" departLane="free" departSpeed="max"/>
    <trip id="hour_15_1293" depart="54037.71" from="4594463" to="452051334" fromTaz="grid-X12Y4" toTaz="destination-X7Y1" departLane="free" departSpeed="max"/>
    <trip id="hour_15_487" depart="54037.74" from="-10666718" to="290538999" fromTaz="fringe-X19Y23" toTaz="destination-X19Y25" departLane="free" departSpeed="max"/>
    <trip id="hour_15_2797" depart="54037.87" from="24821181" to="290538999" fromTaz="origin-X4Y30" toTaz="destination-X19Y25" departLane="free" departSpeed="max"/>
    <trip id="hour_15_1719" depart="54037.93" from="122715726" to="452051334" fromTaz="grid-X22Y11" toTaz="destination-X7Y1" departLane="free" departSpeed="max"/>
    <trip id="hour_15_2862" depart="54037.96" from="24821181" to="290538999" fromTaz="origin-X4Y30" toTaz="destination-X19Y25" departLane="free" departSpeed="max"/>
    <trip id="hour_15_90" depart="54038.04" from="164785142" to="307024527" fromTaz="fringe-X11Y4" toTaz="fringe-X23Y15" departLane="free" departSpeed="max"/>
    <trip id="hour_15_954" depart="54038.12" from="307023793" to="12968189#1" fromTaz="fringe-X23Y15" toTaz="fringe-X20Y7" departLane="free" departSpeed="max"/>
    <trip id="hour_15_907" depart="54038.54" from="-479358807" to="-46650701" fromTaz="fringe-X22Y14" toTaz="grid-X8Y1" departLane="free" departSpeed="max"/>
    <trip id="hour_15_984" depart="54039.29" from="134105523" to="452051334" fromTaz="fringe-X24Y16" toTaz="destination-X7Y1" departLane="free" departSpeed="max"/>
    <trip id="hour_15_207" depart="54039.30" from="11939526419" to="326780459" fromTaz="fringe-X16Y26" toTaz="fringe-X19Y22" departLane="free" departSpeed="max"/>
    <trip id="hour_15_263" depart="54039.43" from="24711105" to="8896380" fromTaz="fringe-X16Y26" toTaz="fringe-X23Y15" departLane="free" departSpeed="max"/>
    <trip id="hour_15_2492" depart="54039.97" from="24821181" to="290538999" fromTaz="origin-X4Y30" toTaz="destination-X19Y25" departLane="free" departSpeed="max"/>
    <trip id="hour_15_570" depart="54040.26" from="-185406398" to="654765962" fromTaz="fringe-X1Y22" toTaz="fringe-X16Y17" departLane="free" departSpeed="max"/>
    <trip id="hour_15_876" depart="54040.97" from="-479358807" to="-11939532554" fromTaz="fringe-X22Y14" toTaz="grid-X5Y7" departLane="free" departSpeed="max"/>
    <trip id="hour_15_1349" depart="54041.06" from="231309156" to="290538999" fromTaz="grid-X15Y6" toTaz="destination-X19Y25" departLane="free" departSpeed="max"/>
    <trip id="hour_15_38" depart="54041.55" from="87194347" to="452051334" fromTaz="fringe-X11Y4" toTaz="destination-X7Y1" departLane="free" departSpeed="max"/>
    <trip id="hour_15_344" depart="54041.59" from="375714879" to="158347370" fromTaz="fringe-X18Y26" toTaz="fringe-X19Y10" departLane="free" departSpeed="max"/>
    <trip id="hour_15_1878" depart="54041.83" from="11939529884" to="275056710" fromTaz="grid-X3Y27" toTaz="destination-X4Y30" departLane="free" departSpeed="max"/>
    <trip id="hour_15_72" depart="54042.16" from="87194347" to="452051334" fromTaz="fringe-X11Y4" toTaz="destination-X7Y1" departLane="free" departSpeed="max"/>
    <trip id="hour_15_635" depart="54042.34" from="143075780" to="290538999" fromTaz="fringe-X20Y21" toTaz="destination-X19Y25" departLane="free" departSpeed="max"/>
    <trip id="hour_15_1043" depart="54042.59" from="-40425140" to="306167689" fromTaz="fringe-X4Y29" toTaz="grid-X15Y18" departLane="free" departSpeed="max"/>
    <trip id="hour_15_3143" depart="54042.65" from="452051337" to="-171039413" fromTaz="origin-X7Y1" toTaz="grid-X20Y11" departLane="free" departSpeed="max"/>
    <trip id="hour_15_575" depart="54042.93" from="-185406398" to="-112558320" fromTaz="fringe-X1Y22" toTaz="grid-X10Y20" departLane="free" departSpeed="max"/>
    <trip id="hour_15_320" depart="54043.83" from="-375714879" to="452051334" fromTaz="fringe-X18Y26" toTaz="destination-X7Y1" departLane="free" departSpeed="max"/>
    <trip id="hour_15_1317" depart="54044.99" from="11939548477" to="375714879" fromTaz="grid-X15Y5" toTaz="fringe-X18Y26" departLane="free" departSpeed="max"/>
    <trip id="hour_15_2568" depart="54045.59" from="24821181" to="290538999" fromTaz="origin-X4Y30" toTaz="destination-X19Y25" departLane="free" departSpeed="max"/>
    <trip id="hour_15_2106" depart="54045.93" from="-71890080" to="150270054" fromTaz="grid-X8Y3" toTaz="fringe-X16Y26" departLane="free" departSpeed="max"/>
    <trip id="hour_15_465" depart="54046.25" from="4414008" to="452051334" fromTaz="fringe-X19Y10" toTaz="destination-X7Y1" departLane="free" departSpeed="max"/>
    <trip id="hour_15_2317" depart="54046.26" from="185260338" to="275056710" fromTaz="origin-X20Y25" toTaz="destination-X4Y30" departLane="free" departSpeed="max"/>
    <trip id="hour_15_3128" depart="54046.72" from="452051337" to="-4412457" fromTaz="origin-X7Y1" toTaz="grid-X19Y7" departLane="free" departSpeed="max"/>
    <trip id="hour_15_2389" depart="54046.79" from="185260338" to="275056710" fromTaz="origin-X20Y25" toTaz="destination-X4Y30" departLane="free" departSpeed="max"/>
    <trip id="hour_15_2792" depart="54046.82" from="24821181" to="290538999" fromTaz="origin-X4Y30" toTaz="destination-X19Y25" departLane="free" departSpeed="max"/>
    <trip id="hour_15_89" depart="54047.01" from="87194347" to="307024527" fromTaz="fringe-X11Y4" toTaz="fringe-X23Y15" departLane="free" departSpeed="max"/>
    <trip id="hour_15_734" depart="54047.16" from="-143075780" to="326780462" fromTaz="fringe-X20Y21" toTaz="fringe-X19Y23" departLane="free" departSpeed="max"/>
    <trip id="hour_15_2087" depart="54047.47" from="-185404669" to="-654765962" fromTaz="grid-X8Y23" toTaz="fringe-X16Y17" departLane="free" departSpeed="max"/>
    <trip id="hour_15_2688" depart="54047.65" from="24821181" to="290538999" fromTaz="origin-X4Y30" toTaz="destination-X19Y25" departLane="free" departSpeed="max"/>
    <trip id="hour_15_361" depart="54048.32" from="375714879" to="326780459" fromTaz="fringe-X18Y26" toTaz="fringe-X19Y22" departLane="free" departSpeed="max"/>
    <trip id="hour_15_799" depart="54048.42" from="12968189#1" to="307023793" fromTaz="fringe-X20Y7" toTaz="fringe-X23Y15" departLane="free" departSpeed="max"/>
    <trip id="hour_15_2254" depart="54048.60" from="185260338" to="275056710" fromTaz="origin-X20Y25" toTaz="destination-X4Y30" departLane="free" departSpeed="max"/>
    <trip id="hour_15_641" depart="54048.71" from="143075780" to="290538999" fromTaz="fringe-X20Y21" toTaz="destination-X19Y25" departLane="free" departSpeed="max"/>
    <trip id="hour_15_556" depart="54048.84" from="-10666718" to="375714879" fromTaz="fringe-X19Y23" toTaz="fringe-X18Y26" departLane="free" departSpeed="max"/>
    <trip id="hour_15_138" depart="54049.13" from="164785142" to="8049636" fromTaz="fringe-X11Y4" toTaz="grid-X9Y2" departLane="free" departSpeed="max"/>
    <trip id="hour_15_3136" depart="54049.16" from="452051337" to="11939538446" fromTaz="origin-X7Y1" toTaz="grid-X19Y9" departLane="free" departSpeed="max"/>
    <trip id="hour_15_2692" depart="54049.53" from="24821181" to="290538999" fromTaz="origin-X4Y30" toTaz="destination-X19Y25" departLane="free" departSpeed="max"/>
    <trip id="hour_15_1905" depart="54049.85" from="-11939540284" to="452051334" fromTaz="grid-X4Y14" toTaz="destination-X7Y1" departLane="free" departSpeed="max"/>
    <trip id="hour_15_2660" depart="54049.86" from="24821181" to="290538999" fromTaz="origin-X4Y30" toTaz="destination-X19Y25" departLane="free" departSpeed="max"/>
    <trip id="hour_15_1892" depart="54049.93" from="-11939545746" to="275056710" fromTaz="grid-X3Y28" toTaz="destination-X4Y30" departLane="free" departSpeed="max"/>
    <trip id="hour_15_2577" depart="54050.01" from="24821181" to="290538999" fromTaz="origin-X4Y30" toTaz="destination-X19Y25" departLane="free" departSpeed="max"/>
    <trip id="hour_15_1725" depart="54050.24" from="11939542662" to="8896380" fromTaz="grid-X22Y11" toTaz="fringe-X23Y15" departLane="free" departSpeed="max"/>