<?xml version="1.0" encoding="UTF-8"?>

<routes xmlns:xsi="http://www.w3.org/2001/XMLSchema-instance" xsi:noNamespaceSchemaLocation="http://sumo.dlr.de/xsd/routes_file.xsd">
    <trip id="hour_10_2505" depart="36000.90" from="185260338" to="275056710" fromTaz="origin-X20Y25" toTaz="destination-X4Y30" departLane="free" departSpeed="max"/>
    <trip id="hour_10_1484" depart="36001.02" from="-451704782" to="307024527" fromTaz="grid-X17Y6" toTaz="fringe-X23Y15" departLane="free" departSpeed="max"/>
    <trip id="hour_10_671" depart="36001.08" from="-143075776" to="290538999" fromTaz="fringe-X20Y21" toTaz="destination-X19Y25" departLane="free" departSpeed="max"/>
    <trip id="hour_10_145" depart="36001.15" from="164785144" to="-407535606" fromTaz="fringe-X11Y4" toTaz="grid-X10Y2" departLane="free" departSpeed="max"/>
    <trip id="hour_10_135" depart="36001.83" from="87194342" to="-237582244" fromTaz="fringe-X11Y4" toTaz="fringe-X1Y12" departLane="free" departSpeed="max"/>
    <trip id="hour_10_1051" depart="36002.92" from="24793256" to="11939549023" fromTaz="fringe-X23Y16" toTaz="grid-X24Y14" departLane="free" departSpeed="max"/>
    <trip id="hour_10_763" depart="36003.08" from="-143075776" to="24711107" fromTaz="fringe-X20Y21" toTaz="fringe-X16Y26" departLane="free" departSpeed="max"/>
    <trip id="hour_10_683" depart="36003.14" from="143075780" to="290538999" fromTaz="fringe-X20Y21" toTaz="destination-X19Y25" departLane="free" departSpeed="max"/>
    <trip id="hour_10_1438" depart="36003.53" from="182037602" to="452051334" fromTaz="grid-X16Y6" toTaz="destination-X7Y1" departLane="free" departSpeed="max"/>
    <trip id="hour_10_923" depart="36003.87" from="-12968189#1" to="11939529179" fromTaz="fringe-X20Y7" toTaz="grid-X19Y9" departLane="free" departSpeed="max"/>
    <trip id="hour_10_1313" depart="36003.98" from="11939547093" to="275056710" fromTaz="grid-X11Y20" toTaz="destination-X4Y30" departLane="free" departSpeed="max"/>
    <trip id="hour_10_1586" depart="36004.33" from="-11939528671" to="290538999" fromTaz="grid-X19Y9" toTaz="destination-X19Y25" departLane="free" departSpeed="max"/>
    <trip id="hour_10_1404" depart="36004.55" from="11939527804" to="452051334" fromTaz="grid-X15Y5" toTaz="destination-X7Y1" departLane="free" departSpeed="max"/>
    <trip id="hour_10_494" depart="36004.77" from="375714879" to="307024527" fromTaz="fringe-X18Y26" toTaz="fringe-X23Y15" departLane="free" departSpeed="max"/>
    <trip id="hour_10_1997" depart="36005.34" from="-11939532937" to="654765962" fromTaz="grid-X5Y18" toTaz="fringe-X16Y17" departLane="free" departSpeed="max"/>
    <trip id="hour_10_2568" depart="36005.67" from="185260338" to="275056710" fromTaz="origin-X20Y25" toTaz="destination-X4Y30" departLane="free" departSpeed="max"/>
    <trip id="hour_10_2461" depart="36006.09" from="185260338" to="275056710" fromTaz="origin-X20Y25" toTaz="destination-X4Y30" departLane="free" departSpeed="max"/>
    <trip id="hour_10_297" depart="36006.14" from="237130850" to="-143075776" fromTaz="fringe-X16Y26" toTaz="fringe-X20Y21" departLane="free" departSpeed="max"/>
    <trip id="hour_10_1733" depart="36006.35" from="122715732" to="5058806" fromTaz="grid-X21Y11" toTaz="fringe-X18Y9" departLane="free" departSpeed="max"/>
    <trip id="hour_10_60" depart="36006.36" from="164785142" to="452051334" fromTaz="fringe-X11Y4" toTaz="destination-X7Y1" departLane="free" departSpeed="max"/>
    <trip id="hour_10_2041" depart="36006.40" from="-11939535983" to="290538999" fromTaz="grid-X5Y25" toTaz="destination-X19Y25" departLane="free" departSpeed="max"/>
    <trip id="hour_10_860" depart="36006.74" from="143075780" to="735174822" fromTaz="fringe-X20Y21" toTaz="grid-X9Y24" departLane="free" departSpeed="max"/>
    <trip id="hour_10_482" depart="36006.97" from="-375714879" to="12968189#1" fromTaz="fringe-X18Y26" toTaz="fringe-X20Y7" departLane="free" departSpeed="max"/>
    <trip id="hour_10_511" depart="36007.29" from="375714879" to="-11939535752" fromTaz="fringe-X18Y26" toTaz="grid-X23Y14" departLane="free" departSpeed="max"/>
    <trip id="hour_10_2471" depart="36007.37" from="185260338" to="275056710" fromTaz="origin-X20Y25" toTaz="destination-X4Y30" departLane="free" departSpeed="max"/>
    <trip id="hour_10_42" depart="36007.38" from="87194342" to="452051334" fromTaz="fringe-X11Y4" toTaz="destination-X7Y1" departLane="free" departSpeed="max"/>
    <trip id="hour_10_2691" depart="36007.43" from="24821181" to="290538999" fromTaz="origin-X4Y30" toTaz="destination-X19Y25" departLane="free" departSpeed="max"/>
    <trip id="hour_10_119" depart="36007.90" from="164785144" to="452051334" fromTaz="fringe-X11Y4" toTaz="destination-X7Y1" departLane="free" departSpeed="max"/>
    <trip id="hour_10_1539" depart="36008.39" from="11939544486" to="452051334" fromTaz="grid-X18Y7" toTaz="destination-X7Y1" departLane="free" departSpeed="max"/>
    <trip id="hour_10_311" depart="36008.55" from="11939526419" to="-143075776" fromTaz="fringe-X16Y26" toTaz="fringe-X20Y21" departLane="free" departSpeed="max"/>
    <trip id="hour_10_2275" depart="36008.64" from="-71736664" to="452051334" fromTaz="grid-X8Y2" toTaz="destination-X7Y1" departLane="free" departSpeed="max"/>
    <trip id="hour_10_514" depart="36008.91" from="57373256" to="452051334" fromTaz="fringe-X18Y9" toTaz="destination-X7Y1" departLane="free" departSpeed="max"/>
    <trip id="hour_10_1719" depart="36009.34" from="-133951992" to="452051334" fromTaz="grid-X21Y11" toTaz="destination-X7Y1" departLane="free" departSpeed="max"/>
    <trip id="hour_10_228" depart="36011.12" from="24711107" to="275056710" fromTaz="fringe-X16Y26" toTaz="destination-X4Y30" departLane="free" departSpeed="max"/>
    <trip id="hour_10_2822" depart="36011.42" from="24821181" to="290538999" fromTaz="origin-X4Y30" toTaz="destination-X19Y25" departLane="free" departSpeed="max"/>
    <trip id="hour_10_3326" depart="36011.53" from="452051337" to="-11939549659" fromTaz="origin-X7Y1" toTaz="grid-X20Y7" departLane="free" departSpeed="max"/>
    <trip id="hour_10_2277" depart="36011.87" from="-71736669" to="452051334" fromTaz="grid-X8Y2" toTaz="destination-X7Y1" departLane="free" departSpeed="max"/>
    <trip id="hour_10_667" depart="36012.32" from="958174516" to="-11939543231" fromTaz="fringe-X1Y23" toTaz="grid-X3Y26" departLane="free" departSpeed="max"/>
    <trip id="hour_10_2448" depart="36012.48" from="185260338" to="275056710" fromTaz="origin-X20Y25" toTaz="destination-X4Y30" departLane="free" departSpeed="max"/>
    <trip id="hour_10_1566" depart="36012.61" from="11939547947" to="-37850228" fromTaz="grid-X18Y7" toTaz="fringe-X7Y0" departLane="free" departSpeed="max"/>
    <trip id="hour_10_2530" depart="36012.68" from="185260338" to="275056710" fromTaz="origin-X20Y25" toTaz="destination-X4Y30" departLane="free" departSpeed="max"/>
    <trip id="hour_10_132" depart="36012.90" from="87194342" to="237582244" fromTaz="fringe-X11Y4" toTaz="fringe-X1Y12" departLane="free" departSpeed="max"/>
    <trip id="hour_10_301" depart="36012.93" from="237130850" to="143075776" fromTaz="fringe-X16Y26" toTaz="fringe-X20Y21" departLane="free" departSpeed="max"/>
    <trip id="hour_10_2285" depart="36013.02" from="71736669" to="452051334" fromTaz="grid-X8Y2" toTaz="destination-X7Y1" departLane="free" departSpeed="max"/>
    <trip id="hour_10_158" depart="36013.05" from="87194342" to="984980715" fromTaz="fringe-X11Y4" toTaz="grid-X5Y10" departLane="free" departSpeed="max"/>
    <trip id="hour_10_2601" depart="36013.10" from="185260338" to="275056710" fromTaz="origin-X20Y25" toTaz="destination-X4Y30" departLane="free" departSpeed="max"/>
    <trip id="hour_10_1715" depart="36013.26" from="171019100" to="275056710" fromTaz="grid-X21Y11" toTaz="destination-X4Y30" departLane="free" departSpeed="max"/>
    <trip id="hour_10_66" depart="36013.56" from="164785142" to="452051334" fromTaz="fringe-X11Y4" toTaz="destination-X7Y1" departLane="free" departSpeed="max"/>
    <trip id="hour_10_1816" depart="36013.61" from="-4814762" to="287201448" fromTaz="grid-X22Y12" toTaz="fringe-X18Y9" departLane="free" departSpeed="max"/>
    <trip id="hour_10_3153" depart="36014.64" from="24821181" to="188943645" fromTaz="origin-X4Y30" toTaz="grid-X16Y18" departLane="free" departSpeed="max"/>
    <trip id="hour_10_1242" depart="36014.93" from="5213455" to="-11939546047" fromTaz="fringe-X7Y28" toTaz="grid-X9Y22" departLane="free" departSpeed="max"/>
    <trip id="hour_10_3148" depart="36014.94" from="24821181" to="33922627" fromTaz="origin-X4Y30" toTaz="grid-X14Y18" departLane="free" departSpeed="max"/>
    <trip id="hour_10_1491" depart="36015.11" from="-56469031" to="452051334" fromTaz="grid-X17Y7" toTaz="destination-X7Y1" departLane="free" departSpeed="max"/>
    <trip id="hour_10_2435" depart="36015.14" from="185260338" to="275056710" fromTaz="origin-X20Y25" toTaz="destination-X4Y30" departLane="free" departSpeed="max"/>
    <trip id="hour_10_1008" depart="36015.27" from="-24793256" to="275056710" fromTaz="fringe-X23Y16" toTaz="destination-X4Y30" departLane="free" departSpeed="max"/>
    <trip id="hour_10_2338" depart="36015.90" from="155094215" to="307024526" fromTaz="grid-X8Y3" toTaz="fringe-X23Y15" departLane="free" departSpeed="max"/>
    <trip id="hour_10_3093" depart="36016.83" from="24821181" to="290538999" fromTaz="origin-X4Y30" toTaz="destination-X19Y25" departLane="free" departSpeed="max"/>
    <trip id="hour_10_536" depart="36017.15" from="158346014" to="452051334" fromTaz="fringe-X19Y10" toTaz="destination-X7Y1" departLane="free" departSpeed="max"/>
    <trip id="hour_10_427" depart="36017.18" from="-375714879" to="290538999" fromTaz="fringe-X18Y26" toTaz="destination-X19Y25" departLane="free" departSpeed="max"/>
    <trip id="hour_10_107" depart="36017.50" from="87194342" to="452051334" fromTaz="fringe-X11Y4" toTaz="destination-X7Y1" departLane="free" departSpeed="max"/>
    <trip id="hour_10_464" depart="36017.68" from="-375714879" to="143075780" fromTaz="fringe-X18Y26" toTaz="fringe-X20Y21" departLane="free" departSpeed="max"/>
    <trip id="hour_10_171" depart="36017.83" from="87194347" to="934773346" fromTaz="fringe-X11Y4" toTaz="grid-X6Y15" departLane="free" departSpeed="max"/>
    <trip id="hour_10_27" depart="36018.13" from="-52045883" to="28565158" fromTaz="fringe-X10Y1" toTaz="grid-X13Y5" departLane="free" departSpeed="max"/>
    <trip id="hour_10_10" depart="36018.39" from="52045883" to="452051334" fromTaz="fringe-X10Y1" toTaz="destination-X7Y1" departLane="free" departSpeed="max"/>
    <trip id="hour_10_203" depart="36018.68" from="11939526419" to="290538999" fromTaz="fringe-X16Y26" toTaz="destination-X19Y25" departLane="free" departSpeed="max"/>
    <trip id="hour_10_1934" depart="36019.32" from="-11939539921" to="275056710" fromTaz="grid-X3Y27" toTaz="destination-X4Y30" departLane="free" departSpeed="max"/>
    <trip id="hour_10_1260" depart="36019.54" from="-11939528419" to="452051334" fromTaz="grid-X10Y2" toTaz="destination-X7Y1" departLane="free" departSpeed="max"/>
    <trip id="hour_10_391" depart="36019.61" from="11939526419" to="-171007703" fromTaz="fringe-X16Y26" toTaz="grid-X19Y7" departLane="free" departSpeed="max"/>
    <trip id="hour_10_1077" depart="36019.64" from="-40425140" to="275056710" fromTaz="fringe-X4Y29" toTaz="destination-X4Y30" departLane="free" departSpeed="max"/>
    <trip id="hour_10_1780" depart="36019.64" from="-1009757382" to="5058806" fromTaz="grid-X21Y12" toTaz="fringe-X18Y9" departLane="free" departSpeed="max"/>
    <trip id="hour_10_1820" depart="36019.71" from="4814762" to="-12968189#1" fromTaz="grid-X22Y12" toTaz="fringe-X20Y7" departLane="free" departSpeed="max"/>
    <trip id="hour_10_2313" depart="36019.73" from="71890080" to="452051334" fromTaz="grid-X8Y3" toTaz="destination-X7Y1" departLane="free" departSpeed="max"/>
    <trip id="hour_10_466" depart="36019.74" from="-375714879" to="143075776" fromTaz="fringe-X18Y26" toTaz="fringe-X20Y21" departLane="free" departSpeed="max"/>
    <trip id="hour_10_2905" depart="36020.04" from="24821181" to="290538999" fromTaz="origin-X4Y30" toTaz="destination-X19Y25" departLane="free" departSpeed="max"/>
    <trip id="hour_10_2453" depart="36020.18" from="185260338" to="275056710" fromTaz="origin-X20Y25" toTaz="destination-X4Y30" departLane="free" departSpeed="max"/>
    <trip id="hour_10_2289" depart="36020.36" from="-71736668" to="164785144" fromTaz="grid-X8Y2" toTaz="fringe-X11Y4" departLane="free" departSpeed="max"/>
    <trip id="hour_10_699" depart="36020.47" from="143075780" to="290538999" fromTaz="fringe-X20Y21" toTaz="destination-X19Y25" departLane="free" departSpeed="max"/>
    <trip id="hour_10_1920" depart="36021.26" from="-11939543231" to="275056710" fromTaz="grid-X3Y26" toTaz="destination-X4Y30" departLane="free" departSpeed="max"/>
    <trip id="hour_10_2589" depart="36021.41" from="185260338" to="275056710" fromTaz="origin-X20Y25" toTaz="destination-X4Y30" departLane="free" departSpeed="max"/>
    <trip id="hour_10_1029" depart="36022.28" from="-24793256" to="-375714879" fromTaz="fringe-X23Y16" toTaz="fringe-X18Y26" departLane="free" departSpeed="max"/>
    <trip id="hour_10_1981" depart="36022.64" from="-11939527117" to="275056710" fromTaz="grid-X4Y28" toTaz="destination-X4Y30" departLane="free" departSpeed="max"/>
    <trip id="hour_10_2826" depart="36022.69" from="24821181" to="290538999" fromTaz="origin-X4Y30" toTaz="destination-X19Y25" departLane="free" departSpeed="max"/>
    <trip id="hour_10_371" depart="36023.05" from="11939526419" to="-134105523" fromTaz="fringe-X16Y26" toTaz="fringe-X24Y16" departLane="free" departSpeed="max"/>
    <trip id="hour_10_608" depart="36023.70" from="-10666718" to="275056710" fromTaz="fringe-X19Y23" toTaz="destination-X4Y30" departLane="free" departSpeed="max"/>
    <trip id="hour_10_901" depart="36024.58" from="12968189#1" to="307023793" fromTaz="fringe-X20Y7" toTaz="fringe-X23Y15" departLane="free" departSpeed="max"/>
    <trip id="hour_10_592" depart="36024.98" from="326780461" to="11939546741" fromTaz="fringe-X19Y22" toTaz="grid-X24Y16" departLane="free" departSpeed="max"/>
    <trip id="hour_10_3086" depart="36025.12" from="24821181" to="290538999" fromTaz="origin-X4Y30" toTaz="destination-X19Y25" departLane="free" departSpeed="max"/>
    <trip id="hour_10_1652" depart="36025.86" from="-171039413" to="7706026" fromTaz="grid-X20Y11" toTaz="fringe-X18Y9" departLane="free" departSpeed="max"/>
    <trip id="hour_10_818" depart="36026.00" from="143075780" to="-375714879" fromTaz="fringe-X20Y21" toTaz="fringe-X18Y26" departLane="free" departSpeed="max"/>
    <trip id="hour_10_982" depart="36026.02" from="8896380" to="-479358807" fromTaz="fringe-X23Y15" toTaz="fringe-X22Y14" departLane="free" departSpeed="max"/>
    <trip id="hour_10_1153" depart="36026.98" from="929240359" to="275056710" fromTaz="fringe-X7Y28" toTaz="destination-X4Y30" departLane="free" departSpeed="max"/>
    <trip id="hour_10_57" depart="36027.48" from="164785142" to="452051334" fromTaz="fringe-X11Y4" toTaz="destination-X7Y1" departLane="free" departSpeed="max"/>
    <trip id="hour_10_3047" depart="36027.56" from="24821181" to="290538999" fromTaz="origin-X4Y30" toTaz="destination-X19Y25" departLane="free" departSpeed="max"/>
    <trip id="hour_10_2628" depart="36027.65" from="185260338" to="275056710" fromTaz="origin-X20Y25" toTaz="destination-X4Y30" departLane="free" departSpeed="max"/>
    <trip id="hour_10_1519" depart="36028.53" from="346397315" to="87194342" fromTaz="grid-X17Y7" toTaz="fringe-X11Y4" departLane="free" departSpeed="max"/>
    <trip id="hour_10_1225" depart="36028.78" from="326572941" to="11939533150" fromTaz="fringe-X7Y28" toTaz="grid-X13Y19" departLane="free" departSpeed="max"/>
    <trip id="hour_10_1093" depart="36029.50" from="40425140" to="275056710" fromTaz="fringe-X4Y29" toTaz="destination-X4Y30" departLane="free" departSpeed="max"/>
    <trip id="hour_10_2158" depart="36029.78" from="11939530795" to="290538999" fromTaz="grid-X6Y19" toTaz="destination-X19Y25" departLane="free" departSpeed="max"/>
    <trip id="hour_10_747" depart="36029.82" from="-143075776" to="275056710" fromTaz="fringe-X20Y21" toTaz="destination-X4Y30" departLane="free" departSpeed="max"/>
    <trip id="hour_10_3009" depart="36030.05" from="24821181" to="290538999" fromTaz="origin-X4Y30" toTaz="destination-X19Y25" departLane="free" departSpeed="max"/>
    <trip id="hour_10_2712" depart="36030.10" from="24821181" to="290538999" fromTaz="origin-X4Y30" toTaz="destination-X19Y25" departLane="free" departSpeed="max"/>
    <trip id="hour_10_2743" depart="36030.18" from="24821181" to="290538999" fromTaz="origin-X4Y30" toTaz="destination-X19Y25" departLane="free" departSpeed="max"/>
    <trip id="hour_10_81" depart="36030.86" from="164785142" to="452051334" fromTaz="fringe-X11Y4" toTaz="destination-X7Y1" departLane="free" departSpeed="max"/>
    <trip id="hour_10_2684" depart="36030.87" from="185260338" to="275056710" fromTaz="origin-X20Y25" toTaz="destination-X4Y30" departLane="free" departSpeed="max"/>
    <trip id="hour_10_502" depart="36030.89" from="375714879" to="-24793256" fromTaz="fringe-X18Y26" toTaz="fringe-X23Y16" departLane="free" departSpeed="max"/>
    <trip id="hour_10_2627" depart="36031.13" from="185260338" to="275056710" fromTaz="origin-X20Y25" toTaz="destination-X4Y30" departLane="free" departSpeed="max"/>
    <trip id="hour_10_1695" depart="36031.29" from="-11939538227" to="452051334" fromTaz="grid-X20Y9" toTaz="destination-X7Y1" departLane="free" departSpeed="max"/>
    <trip id="hour_10_3281" depart="36031.29" from="452051337" to="-12968189#1" fromTaz="origin-X7Y1" toTaz="fringe-X20Y7" departLane="free" departSpeed="max"/>
    <trip id="hour_10_2009" depart="36031.33" from="49942411" to="275056710" fromTaz="grid-X5Y21" toTaz="destination-X4Y30" departLane="free" departSpeed="max"/>
    <trip id="hour_10_547" depart="36031.44" from="326780459" to="275056710" fromTaz="fringe-X19Y22" toTaz="destination-X4Y30" departLane="free" departSpeed="max"/>
    <trip id="hour_10_238" depart="36031.69" from="237130850" to="275056710" fromTaz="fringe-X16Y26" toTaz="destination-X4Y30" departLane="free" departSpeed="max"/>
    <trip id="hour_10_1329" depart="36031.70" from="11939526251" to="275056710" fromTaz="grid-X11Y26" toTaz="destination-X4Y30" departLane="free" departSpeed="max"/>
    <trip id="hour_10_1804" depart="36031.73" from="11939542662" to="287201448" fromTaz="grid-X22Y11" toTaz="fringe-X18Y9" departLane="free" departSpeed="max"/>
    <trip id="hour_10_1984" depart="36031.76" from="1160234946" to="275056710" fromTaz="grid-X4Y28" toTaz="destination-X4Y30" departLane="free" departSpeed="max"/>
    <trip id="hour_10_3271" depart="36031.77" from="452051337" to="4414008" fromTaz="origin-X7Y1" toTaz="fringe-X19Y10" departLane="free" departSpeed="max"/>
    <trip id="hour_10_2656" depart="36031.88" from="185260338" to="275056710" fromTaz="origin-X20Y25" toTaz="destination-X4Y30" departLane="free" departSpeed="max"/>
    <trip id="hour_10_971" depart="36032.26" from="479358807" to="307023793" fromTaz="fringe-X22Y14" toTaz="fringe-X23Y15" departLane="free" departSpeed="max"/>
    <trip id="hour_10_2798" depart="36032.76" from="24821181" to="290538999" fromTaz="origin-X4Y30" toTaz="destination-X19Y25" departLane="free" departSpeed="max"/>
    <trip id="hour_10_1842" depart="36032.84" from="-24542446" to="8896380" fromTaz="grid-X22Y14" toTaz="fringe-X23Y15" departLane="free" departSpeed="max"/>
    <trip id="hour_10_2130" depart="36032.95" from="-734247285" to="275056710" fromTaz="grid-X5Y28" toTaz="destination-X4Y30" departLane="free" departSpeed="max"/>
    <trip id="hour_10_223" depart="36033.49" from="326594940" to="275056710" fromTaz="fringe-X16Y26" toTaz="destination-X4Y30" departLane="free" departSpeed="max"/>
    <trip id="hour_10_638" depart="36033.54" from="185406398" to="-11939526493" fromTaz="fringe-X1Y22" toTaz="grid-X11Y19" departLane="free" departSpeed="max"/>
    <trip id="hour_10_1265" depart="36034.84" from="74096256" to="275056710" fromTaz="grid-X10Y20" toTaz="destination-X4Y30" departLane="free" departSpeed="max"/>
    <trip id="hour_10_1821" depart="36034.90" from="4814762" to="307023793" fromTaz="grid-X22Y12" toTaz="fringe-X23Y15" departLane="free" departSpeed="max"/>
    <trip id="hour_10_802" depart="36034.92" from="-143075776" to="375714879" fromTaz="fringe-X20Y21" toTaz="fringe-X18Y26" departLane="free" departSpeed="max"/>
    <trip id="hour_10_1839" depart="36035.22" from="11939531288" to="452051334" fromTaz="grid-X22Y14" toTaz="destination-X7Y1" departLane="free" departSpeed="max"/>
    <trip id="hour_10_2238" depart="36035.30" from="-11939541458" to="134105523" fromTaz="grid-X7Y19" toTaz="fringe-X24Y16" departLane="free" departSpeed="max"/>
    <trip id="hour_10_2776" depart="36035.90" from="24821181" to="290538999" fromTaz="origin-X4Y30" toTaz="destination-X19Y25" departLane="free" departSpeed="max"/>
    <trip id="hour_10_694" depart="36036.13" from="143075780" to="290538999" fromTaz="fringe-X20Y21" toTaz="destination-X19Y25" departLane="free" departSpeed="max"/>
    <trip id="hour_10_1212" depart="36036.35" from="326572945" to="11939537277" fromTaz="fringe-X7Y28" toTaz="grid-X10Y24" departLane="free" departSpeed="max"/>
    <trip id="hour_10_1278" depart="36036.58" from="-11939531321" to="275056710" fromTaz="grid-X10Y24" toTaz="destination-X4Y30" departLane="free" departSpeed="max"/>
    <trip id="hour_10_779" depart="36036.64" from="143075776" to="375714879" fromTaz="fringe-X20Y21" toTaz="fringe-X18Y26" departLane="free" departSpeed="max"/>
    <trip id="hour_10_1553" depart="36036.70" from="-11939547947" to="-52045883" fromTaz="grid-X18Y7" toTaz="fringe-X10Y1" departLane="free" departSpeed="max"/>
    <trip id="hour_10_181" depart="36036.86" from="87194347" to="-79093251" fromTaz="fringe-X11Y4" toTaz="grid-X9Y2" departLane="free" departSpeed="max"/>
    <trip id="hour_10_2254" depart="36037.00" from="11939549651" to="290538999" fromTaz="grid-X7Y23" toTaz="destination-X19Y25" departLane="free" departSpeed="max"/>
    <trip id="hour_10_287" depart="36037.11" from="150270059" to="-143075776" fromTaz="fringe-X16Y26" toTaz="fringe-X20Y21" departLane="free" departSpeed="max"/>
    <trip id="hour_10_1759" depart="36037.17" from="-158415224" to="452051334" fromTaz="grid-X21Y12" toTaz="destination-X7Y1" departLane="free" departSpeed="max"/>
    <trip id="hour_10_1344" depart="36037.22" from="214317426" to="40425140" fromTaz="grid-X11Y26" toTaz="fringe-X4Y29" departLane="free" departSpeed="max"/>
    <trip id="hour_10_766" depart="36037.58" from="143075776" to="24711107" fromTaz="fringe-X20Y21" toTaz="fringe-X16Y26" departLane="free" departSpeed="max"/>
    <trip id="hour_10_3083" depart="36037.58" from="24821181" to="290538999" fromTaz="origin-X4Y30" toTaz="destination-X19Y25" departLane="free" departSpeed="max"/>
    <trip id="hour_10_12" depart="36037.69" from="-52045883" to="452051334" fromTaz="fringe-X10Y1" toTaz="destination-X7Y1" departLane="free" departSpeed="max"/>
    <trip id="hour_10_501" depart="36037.70" from="-375714879" to="-24793256" fromTaz="fringe-X18Y26" toTaz="fringe-X23Y16" departLane="free" departSpeed="max"/>
    <trip id="hour_10_1296" depart="36037.71" from="11939544126" to="275056710" fromTaz="grid-X10Y25" toTaz="destination-X4Y30" departLane="free" departSpeed="max"/>
    <trip id="hour_10_2779" depart="36037.87" from="24821181" to="290538999" fromTaz="origin-X4Y30" toTaz="destination-X19Y25" departLane="free" departSpeed="max"/>
    <trip id="hour_10_2844" depart="36037.96" from="24821181" to="290538999" fromTaz="origin-X4Y30" toTaz="destination-X19Y25" departLane="free" departSpeed="max"/>
    <trip id="hour_10_1287" depart="36038.17" from="-11939532466" to="275056710" fromTaz="grid-X10Y25" toTaz="destination-X4Y30" departLane="free" departSpeed="max"/>
    <trip id="hour_10_829" depart="36038.97" from="143075780" to="326780462" fromTaz="fringe-X20Y21" toTaz="fringe-X19Y23" departLane="free" departSpeed="max"/>
    <trip id="hour_10_294" depart="36039.02" from="24711105" to="143075780" fromTaz="fringe-X16Y26" toTaz="fringe-X20Y21" departLane="free" departSpeed="max"/>
    <trip id="hour_10_205" depart="36039.30" from="11939526419" to="290538999" fromTaz="fringe-X16Y26" toTaz="destination-X19Y25" departLane="free" departSpeed="max"/>
    <trip id="hour_10_3329" depart="36039.36" from="452051337" to="11939532094" fromTaz="origin-X7Y1" toTaz="grid-X20Y9" departLane="free" departSpeed="max"/>
    <trip id="hour_10_1632" depart="36039.36" from="-184785913" to="290538999" fromTaz="grid-X20Y11" toTaz="destination-X19Y25" departLane="free" departSpeed="max"/>
    <trip id="hour_10_3058" depart="36039.62" from="24821181" to="290538999" fromTaz="origin-X4Y30" toTaz="destination-X19Y25" departLane="free" departSpeed="max"/>
    <trip id="hour_10_2929" depart="36039.66" from="24821181" to="290538999" fromTaz="origin-X4Y30" toTaz="destination-X19Y25" departLane="free" departSpeed="max"/>
    <trip id="hour_10_187" depart="36039.70" from="-654765962" to="275056710" fromTaz="fringe-X16Y17" toTaz="destination-X4Y30" departLane="free" departSpeed="max"/>
    <trip id="hour_10_3188" depart="36039.79" from="452051337" to="290538999" fromTaz="origin-X7Y1" toTaz="destination-X19Y25" departLane="free" departSpeed="max"/>
    <trip id="hour_10_2474" depart="36039.97" from="185260338" to="275056710" fromTaz="origin-X20Y25" toTaz="destination-X4Y30" departLane="free" departSpeed="max"/>
    <trip id="hour_10_572" depart="36040.26" from="326780461" to="143075780" fromTaz="fringe-X19Y22" toTaz="fringe-X20Y21" departLane="free" departSpeed="max"/>
    <trip id="hour_10_3166" depart="36040.46" from="24821181" to="943507079" fromTaz="origin-X4Y30" toTaz="grid-X9Y22" departLane="free" departSpeed="max"/>
    <trip id="hour_10_878" depart="36040.97" from="12968189#1" to="452051334" fromTaz="fringe-X20Y7" toTaz="destination-X7Y1" departLane="free" departSpeed="max"/>
    <trip id="hour_10_369" depart="36041.04" from="11939526419" to="24793256" fromTaz="fringe-X16Y26" toTaz="fringe-X23Y16" departLane="free" departSpeed="max"/>
    <trip id="hour_10_40" depart="36041.55" from="87194347" to="452051334" fromTaz="fringe-X11Y4" toTaz="destination-X7Y1" departLane="free" departSpeed="max"/>
    <trip id="hour_10_347" depart="36041.59" from="326594940" to="8896380" fromTaz="fringe-X16Y26" toTaz="fringe-X23Y15" departLane="free" departSpeed="max"/>
    <trip id="hour_10_1200" depart="36041.66" from="5213455" to="654765962" fromTaz="fringe-X7Y28" toTaz="fringe-X16Y17" departLane="free" departSpeed="max"/>
    <trip id="hour_10_1885" depart="36041.83" from="11939524072" to="452051334" fromTaz="grid-X24Y15" toTaz="destination-X7Y1" departLane="free" departSpeed="max"/>
    <trip id="hour_10_74" depart="36042.16" from="87194347" to="452051334" fromTaz="fringe-X11Y4" toTaz="destination-X7Y1" departLane="free" departSpeed="max"/>
    <trip id="hour_10_2977" depart="36042.49" from="24821181" to="290538999" fromTaz="origin-X4Y30" toTaz="destination-X19Y25" departLane="free" departSpeed="max"/>
    <trip id="hour_10_1626" depart="36042.51" from="-11939538898" to="307023793" fromTaz="grid-X20Y10" toTaz="fringe-X23Y15" departLane="free" departSpeed="max"/>
    <trip id="hour_10_1751" depart="36042.64" from="-158414578" to="290538999" fromTaz="grid-X21Y12" toTaz="destination-X19Y25" departLane="free" departSpeed="max"/>
    <trip id="hour_10_3142" depart="36042.65" from="24821181" to="-173454513" fromTaz="origin-X4Y30" toTaz="grid-X12Y26" departLane="free" departSpeed="max"/>
    <trip id="hour_10_1648" depart="36042.67" from="171024561" to="5058806" fromTaz="grid-X20Y11" toTaz="fringe-X18Y9" departLane="free" departSpeed="max"/>
    <trip id="hour_10_3254" depart="36042.69" from="452051337" to="7706026" fromTaz="origin-X7Y1" toTaz="fringe-X18Y9" departLane="free" departSpeed="max"/>
    <trip id="hour_10_578" depart="36042.93" from="326780461" to="479358807" fromTaz="fringe-X19Y22" toTaz="fringe-X22Y14" departLane="free" departSpeed="max"/>
    <trip id="hour_10_322" depart="36043.83" from="150270054" to="-12968189#1" fromTaz="fringe-X16Y26" toTaz="fringe-X20Y7" departLane="free" departSpeed="max"/>
    <trip id="hour_10_668" depart="36044.26" from="-958174516" to="-61043917" fromTaz="fringe-X1Y23" toTaz="grid-X3Y26" departLane="free" departSpeed="max"/>
    <trip id="hour_10_454" depart="36044.66" from="-375714879" to="326780461" fromTaz="fringe-X18Y26" toTaz="fringe-X19Y22" departLane="free" departSpeed="max"/>
    <trip id="hour_10_1169" depart="36044.80" from="5213455" to="275056710" fromTaz="fringe-X7Y28" toTaz="destination-X4Y30" departLane="free" departSpeed="max"/>
    <trip id="hour_10_1323" depart="36044.99" from="735250189" to="275056710" fromTaz="grid-X11Y25" toTaz="destination-X4Y30" departLane="free" departSpeed="max"/>
    <trip id="hour_10_2550" depart="36045.59" from="185260338" to="275056710" fromTaz="origin-X20Y25" toTaz="destination-X4Y30" departLane="free" departSpeed="max"/>
    <trip id="hour_10_2306" depart="36046.26" from="38662842" to="-479358807" fromTaz="grid-X8Y23" toTaz="fringe-X22Y14" departLane="free" departSpeed="max"/>
    <trip id="hour_10_3128" depart="36046.72" from="24821181" to="-11939531321" fromTaz="origin-X4Y30" toTaz="grid-X10Y24" departLane="free" departSpeed="max"/>
    <trip id="hour_10_2774" depart="36046.82" from="24821181" to="290538999" fromTaz="origin-X4Y30" toTaz="destination-X19Y25" departLane="free" departSpeed="max"/>
    <trip id="hour_10_732" depart="36047.16" from="-143075780" to="275056710" fromTaz="fringe-X20Y21" toTaz="destination-X4Y30" departLane="free" departSpeed="max"/>
    <trip id="hour_10_2101" depart="36047.47" from="-409783350" to="-134105523" fromTaz="grid-X5Y26" toTaz="fringe-X24Y16" departLane="free" departSpeed="max"/>