<?xml version="1.0" encoding="UTF-8"?>

<routes xmlns:xsi="http://www.w3.org/2001/XMLSchema-instance" xsi:noNamespaceSchemaLocation="http://sumo.dlr.de/xsd/routes_file.xsd">
    <trip id="hour_16_68" depart="57600.56" from="87194347" to="452051334" fromTaz="fringe-X11Y4" toTaz="destination-X7Y1" departLane="free" departSpeed="max"/>
    <trip id="hour_16_1974" depart="57600.75" from="-71890080" to="290538999" fromTaz="grid-X8Y3" toTaz="destination-X19Y25" departLane="free" departSpeed="max"/>
    <trip id="hour_16_59" depart="57600.79" from="164785142" to="452051334" fromTaz="fringe-X11Y4" toTaz="destination-X7Y1" departLane="free" departSpeed="max"/>
    <trip id="hour_16_174" depart="57600.81" from="164785142" to="-11939546997" fromTaz="fringe-X11Y4" toTaz="grid-X5Y8" departLane="free" departSpeed="max"/>
    <trip id="hour_16_2452" depart="57600.90" from="24821181" to="290538999" fromTaz="origin-X4Y30" toTaz="destination-X19Y25" departLane="free" departSpeed="max"/>
    <trip id="hour_16_2230" depart="57601.24" from="185260338" to="275056710" fromTaz="origin-X20Y25" toTaz="destination-X4Y30" departLane="free" departSpeed="max"/>
    <trip id="hour_16_1650" depart="57601.26" from="-207067942" to="452051334" fromTaz="grid-X2Y14" toTaz="destination-X7Y1" departLane="free" departSpeed="max"/>
    <trip id="hour_16_1687" depart="57601.55" from="1206107777" to="275056710" fromTaz="grid-X3Y27" toTaz="destination-X4Y30" departLane="free" departSpeed="max"/>
    <trip id="hour_16_1074" depart="57601.84" from="326572945" to="-133951164" fromTaz="fringe-X7Y28" toTaz="grid-X22Y12" departLane="free" departSpeed="max"/>
    <trip id="hour_16_522" depart="57602.75" from="326780462" to="11939526419" fromTaz="fringe-X19Y23" toTaz="fringe-X16Y26" departLane="free" departSpeed="max"/>
    <trip id="hour_16_1026" depart="57602.92" from="5213455" to="11939532269" fromTaz="fringe-X7Y28" toTaz="grid-X10Y25" departLane="free" departSpeed="max"/>
    <trip id="hour_16_740" depart="57603.08" from="12968189#1" to="11939545157" fromTaz="fringe-X20Y7" toTaz="grid-X20Y10" departLane="free" departSpeed="max"/>
    <trip id="hour_16_664" depart="57603.14" from="143075780" to="10666718" fromTaz="fringe-X20Y21" toTaz="fringe-X19Y23" departLane="free" departSpeed="max"/>
    <trip id="hour_16_2284" depart="57603.46" from="185260338" to="275056710" fromTaz="origin-X20Y25" toTaz="destination-X4Y30" departLane="free" departSpeed="max"/>
    <trip id="hour_16_1395" depart="57603.53" from="11939547947" to="452051334" fromTaz="grid-X18Y7" toTaz="destination-X7Y1" departLane="free" departSpeed="max"/>
    <trip id="hour_16_1536" depart="57604.33" from="-11939539637" to="287201448" fromTaz="grid-X21Y11" toTaz="fringe-X18Y9" departLane="free" departSpeed="max"/>
    <trip id="hour_16_1361" depart="57604.55" from="396808035" to="-237582244" fromTaz="grid-X17Y6" toTaz="fringe-X1Y12" departLane="free" departSpeed="max"/>
    <trip id="hour_16_1907" depart="57605.34" from="-154875043" to="452051334" fromTaz="grid-X7Y3" toTaz="destination-X7Y1" departLane="free" departSpeed="max"/>
    <trip id="hour_16_2515" depart="57605.67" from="24821181" to="290538999" fromTaz="origin-X4Y30" toTaz="destination-X19Y25" departLane="free" departSpeed="max"/>
    <trip id="hour_16_2410" depart="57606.09" from="185260338" to="275056710" fromTaz="origin-X20Y25" toTaz="destination-X4Y30" departLane="free" departSpeed="max"/>
    <trip id="hour_16_295" depart="57606.14" from="237130850" to="12968189#1" fromTaz="fringe-X16Y26" toTaz="fringe-X20Y7" departLane="free" departSpeed="max"/>
    <trip id="hour_16_1670" depart="57606.35" from="11939538459" to="290538999" fromTaz="grid-X3Y22" toTaz="destination-X19Y25" departLane="free" departSpeed="max"/>
    <trip id="hour_16_1491" depart="57606.67" from="11939549659" to="452051334" fromTaz="grid-X20Y7" toTaz="destination-X7Y1" departLane="free" departSpeed="max"/>
    <trip id="hour_16_836" depart="57606.74" from="-24793256" to="290538999" fromTaz="fringe-X23Y16" toTaz="destination-X19Y25" departLane="free" departSpeed="max"/>
    <trip id="hour_16_474" depart="57606.97" from="326780461" to="-143075776" fromTaz="fringe-X19Y22" toTaz="fringe-X20Y21" departLane="free" departSpeed="max"/>
    <trip id="hour_16_2791" depart="57607.36" from="24821181" to="-214317426" fromTaz="origin-X4Y30" toTaz="grid-X11Y26" departLane="free" departSpeed="max"/>
    <trip id="hour_16_2420" depart="57607.37" from="185260338" to="275056710" fromTaz="origin-X20Y25" toTaz="destination-X4Y30" departLane="free" departSpeed="max"/>
    <trip id="hour_16_43" depart="57607.38" from="-52045883" to="451730175" fromTaz="fringe-X10Y1" toTaz="grid-X13Y5" departLane="free" departSpeed="max"/>
    <trip id="hour_16_2638" depart="57607.43" from="24821181" to="290538999" fromTaz="origin-X4Y30" toTaz="destination-X19Y25" departLane="free" departSpeed="max"/>
    <trip id="hour_16_119" depart="57607.90" from="164785144" to="452051334" fromTaz="fringe-X11Y4" toTaz="destination-X7Y1" departLane="free" departSpeed="max"/>
    <trip id="hour_16_308" depart="57608.55" from="11939526419" to="-479358807" fromTaz="fringe-X16Y26" toTaz="fringe-X22Y14" departLane="free" departSpeed="max"/>
    <trip id="hour_16_506" depart="57608.91" from="-10666718" to="290538999" fromTaz="fringe-X19Y23" toTaz="destination-X19Y25" departLane="free" departSpeed="max"/>
    <trip id="hour_16_2966" depart="57609.43" from="452051337" to="-11939535751" fromTaz="origin-X7Y1" toTaz="grid-X23Y14" departLane="free" departSpeed="max"/>
    <trip id="hour_16_1843" depart="57609.92" from="11939548510" to="452051334" fromTaz="grid-X5Y6" toTaz="destination-X7Y1" departLane="free" departSpeed="max"/>
    <trip id="hour_16_1566" depart="57610.16" from="-158415224" to="158346014" fromTaz="grid-X21Y12" toTaz="fringe-X19Y10" departLane="free" departSpeed="max"/>
    <trip id="hour_16_1994" depart="57610.87" from="-987011928" to="-52045883" fromTaz="grid-X8Y3" toTaz="fringe-X10Y1" departLane="free" departSpeed="max"/>
    <trip id="hour_16_2769" depart="57611.42" from="24821181" to="290538999" fromTaz="origin-X4Y30" toTaz="destination-X19Y25" departLane="free" departSpeed="max"/>
    <trip id="hour_16_1775" depart="57611.45" from="464599487" to="57373256" fromTaz="grid-X5Y26" toTaz="fringe-X18Y9" departLane="free" departSpeed="max"/>
    <trip id="hour_16_2109" depart="57611.57" from="735174819" to="290538999" fromTaz="grid-X9Y24" toTaz="destination-X19Y25" departLane="free" departSpeed="max"/>
    <trip id="hour_16_1448" depart="57612.02" from="-11939545157" to="290538999" fromTaz="grid-X20Y10" toTaz="destination-X19Y25" departLane="free" departSpeed="max"/>
    <trip id="hour_16_2397" depart="57612.48" from="185260338" to="275056710" fromTaz="origin-X20Y25" toTaz="destination-X4Y30" departLane="free" departSpeed="max"/>
    <trip id="hour_16_2477" depart="57612.68" from="24821181" to="290538999" fromTaz="origin-X4Y30" toTaz="destination-X19Y25" departLane="free" departSpeed="max"/>
    <trip id="hour_16_490" depart="57612.98" from="326780459" to="8896380" fromTaz="fringe-X19Y22" toTaz="fringe-X23Y15" departLane="free" departSpeed="max"/>
    <trip id="hour_16_2548" depart="57613.10" from="24821181" to="290538999" fromTaz="origin-X4Y30" toTaz="destination-X19Y25" departLane="free" departSpeed="max"/>
    <trip id="hour_16_142" depart="57613.17" from="87194347" to="45569875" fromTaz="fringe-X11Y4" toTaz="grid-X10Y1" departLane="free" departSpeed="max"/>
    <trip id="hour_16_1654" depart="57613.26" from="154792584" to="275056710" fromTaz="grid-X2Y24" toTaz="destination-X4Y30" departLane="free" departSpeed="max"/>
    <trip id="hour_16_1029" depart="57614.59" from="154716118" to="11939547092" fromTaz="fringe-X7Y28" toTaz="grid-X11Y19" departLane="free" departSpeed="max"/>
    <trip id="hour_16_2442" depart="57615.02" from="24821181" to="290538999" fromTaz="origin-X4Y30" toTaz="destination-X19Y25" departLane="free" departSpeed="max"/>
    <trip id="hour_16_2384" depart="57615.14" from="185260338" to="275056710" fromTaz="origin-X20Y25" toTaz="destination-X4Y30" departLane="free" departSpeed="max"/>
    <trip id="hour_16_1097" depart="57615.22" from="-326572945" to="11939524072" fromTaz="fringe-X7Y28" toTaz="grid-X24Y15" departLane="free" departSpeed="max"/>
    <trip id="hour_16_983" depart="57615.27" from="929240359" to="24793256" fromTaz="fringe-X7Y28" toTaz="fringe-X23Y16" departLane="free" departSpeed="max"/>
    <trip id="hour_16_1814" depart="57615.34" from="-32018083" to="-185406398" fromTaz="grid-X5Y27" toTaz="fringe-X1Y22" departLane="free" departSpeed="max"/>
    <trip id="hour_16_757" depart="57615.70" from="-12968189#1" to="1188704304" fromTaz="fringe-X20Y7" toTaz="grid-X24Y16" departLane="free" departSpeed="max"/>
    <trip id="hour_16_975" depart="57615.75" from="929240359" to="307024526" fromTaz="fringe-X7Y28" toTaz="fringe-X23Y15" departLane="free" departSpeed="max"/>
    <trip id="hour_16_2280" depart="57615.90" from="185260338" to="275056710" fromTaz="origin-X20Y25" toTaz="destination-X4Y30" departLane="free" departSpeed="max"/>
    <trip id="hour_16_786" depart="57616.06" from="-121921459" to="-12968189#1" fromTaz="fringe-X22Y11" toTaz="fringe-X20Y7" departLane="free" departSpeed="max"/>
    <trip id="hour_16_2632" depart="57616.66" from="24821181" to="290538999" fromTaz="origin-X4Y30" toTaz="destination-X19Y25" departLane="free" departSpeed="max"/>
    <trip id="hour_16_423" depart="57617.18" from="-375714879" to="143075780" fromTaz="fringe-X18Y26" toTaz="fringe-X20Y21" departLane="free" departSpeed="max"/>
    <trip id="hour_16_107" depart="57617.50" from="87194342" to="452051334" fromTaz="fringe-X11Y4" toTaz="destination-X7Y1" departLane="free" departSpeed="max"/>
    <trip id="hour_16_159" depart="57617.81" from="164785144" to="11939549994" fromTaz="fringe-X11Y4" toTaz="grid-X4Y10" departLane="free" departSpeed="max"/>
    <trip id="hour_16_170" depart="57617.83" from="87194347" to="68526298" fromTaz="fringe-X11Y4" toTaz="grid-X5Y6" departLane="free" departSpeed="max"/>
    <trip id="hour_16_10" depart="57618.39" from="52045883" to="452051334" fromTaz="fringe-X10Y1" toTaz="destination-X7Y1" departLane="free" departSpeed="max"/>
    <trip id="hour_16_201" depart="57618.68" from="11939526419" to="290538999" fromTaz="fringe-X16Y26" toTaz="destination-X19Y25" departLane="free" departSpeed="max"/>
    <trip id="hour_16_69" depart="57618.68" from="87194342" to="452051334" fromTaz="fringe-X11Y4" toTaz="destination-X7Y1" departLane="free" departSpeed="max"/>
    <trip id="hour_16_688" depart="57618.97" from="12968189#1" to="57373256" fromTaz="fringe-X20Y7" toTaz="fringe-X18Y9" departLane="free" departSpeed="max"/>
    <trip id="hour_16_1228" depart="57619.54" from="-11939526284" to="158346347" fromTaz="grid-X11Y4" toTaz="fringe-X19Y10" departLane="free" departSpeed="max"/>
    <trip id="hour_16_30" depart="57619.60" from="-52045883" to="11939531515" fromTaz="fringe-X10Y1" toTaz="grid-X10Y3" departLane="free" departSpeed="max"/>
    <trip id="hour_16_1977" depart="57619.66" from="71890080" to="275056710" fromTaz="grid-X8Y3" toTaz="destination-X4Y30" departLane="free" departSpeed="max"/>
    <trip id="hour_16_2253" depart="57619.73" from="185260338" to="275056710" fromTaz="origin-X20Y25" toTaz="destination-X4Y30" departLane="free" departSpeed="max"/>
    <trip id="hour_16_339" depart="57619.75" from="150270059" to="134105523" fromTaz="fringe-X16Y26" toTaz="fringe-X24Y16" departLane="free" departSpeed="max"/>
    <trip id="hour_16_2198" depart="57619.83" from="185260338" to="275056710" fromTaz="origin-X20Y25" toTaz="destination-X4Y30" departLane="free" departSpeed="max"/>
    <trip id="hour_16_2841" depart="57620.04" from="452051337" to="290538999" fromTaz="origin-X7Y1" toTaz="destination-X19Y25" departLane="free" departSpeed="max"/>
    <trip id="hour_16_2402" depart="57620.18" from="185260338" to="275056710" fromTaz="origin-X20Y25" toTaz="destination-X4Y30" departLane="free" departSpeed="max"/>
    <trip id="hour_16_2225" depart="57620.36" from="185260338" to="275056710" fromTaz="origin-X20Y25" toTaz="destination-X4Y30" departLane="free" departSpeed="max"/>
    <trip id="hour_16_1829" depart="57621.20" from="-142676274" to="275056710" fromTaz="grid-X5Y28" toTaz="destination-X4Y30" departLane="free" departSpeed="max"/>
    <trip id="hour_16_1839" depart="57621.26" from="-38937914" to="452051334" fromTaz="grid-X5Y5" toTaz="destination-X7Y1" departLane="free" departSpeed="max"/>
    <trip id="hour_16_2536" depart="57621.41" from="24821181" to="290538999" fromTaz="origin-X4Y30" toTaz="destination-X19Y25" departLane="free" departSpeed="max"/>
    <trip id="hour_16_2899" depart="57621.44" from="452051337" to="479358807" fromTaz="origin-X7Y1" toTaz="fringe-X22Y14" departLane="free" departSpeed="max"/>
    <trip id="hour_16_1004" depart="57622.28" from="326572945" to="134105523" fromTaz="fringe-X7Y28" toTaz="fringe-X24Y16" departLane="free" departSpeed="max"/>
    <trip id="hour_16_2068" depart="57622.47" from="71890080" to="-326572945" fromTaz="grid-X8Y3" toTaz="fringe-X7Y28" departLane="free" departSpeed="max"/>
    <trip id="hour_16_1891" depart="57622.64" from="-11939534360" to="287201448" fromTaz="grid-X7Y2" toTaz="fringe-X18Y9" departLane="free" departSpeed="max"/>
    <trip id="hour_16_2811" depart="57622.66" from="24821181" to="-68468562" fromTaz="origin-X4Y30" toTaz="grid-X5Y27" departLane="free" departSpeed="max"/>
    <trip id="hour_16_2773" depart="57622.69" from="24821181" to="290538999" fromTaz="origin-X4Y30" toTaz="destination-X19Y25" departLane="free" departSpeed="max"/>
    <trip id="hour_16_2921" depart="57623.83" from="452051337" to="-134105523" fromTaz="origin-X7Y1" toTaz="fringe-X24Y16" departLane="free" departSpeed="max"/>
    <trip id="hour_16_1054" depart="57623.89" from="326572941" to="-11939526280" fromTaz="fringe-X7Y28" toTaz="grid-X18Y7" departLane="free" departSpeed="max"/>
    <trip id="hour_16_1553" depart="57624.89" from="133951992" to="452051334" fromTaz="grid-X21Y12" toTaz="destination-X7Y1" departLane="free" departSpeed="max"/>
    <trip id="hour_16_568" depart="57624.98" from="958174516" to="275056710" fromTaz="fringe-X1Y23" toTaz="destination-X4Y30" departLane="free" departSpeed="max"/>
    <trip id="hour_16_1108" depart="57626.64" from="-326572945" to="1222298640" fromTaz="fringe-X7Y28" toTaz="grid-X6Y19" departLane="free" departSpeed="max"/>
    <trip id="hour_16_2575" depart="57627.65" from="24821181" to="290538999" fromTaz="origin-X4Y30" toTaz="destination-X19Y25" departLane="free" departSpeed="max"/>
    <trip id="hour_16_1114" depart="57629.17" from="326572941" to="-11939537604" fromTaz="fringe-X7Y28" toTaz="grid-X9Y22" departLane="free" departSpeed="max"/>
    <trip id="hour_16_1065" depart="57629.50" from="929240359" to="345140246" fromTaz="fringe-X7Y28" toTaz="grid-X19Y8" departLane="free" departSpeed="max"/>
    <trip id="hour_16_2077" depart="57629.78" from="11939525680" to="452051334" fromTaz="grid-X9Y2" toTaz="destination-X7Y1" departLane="free" departSpeed="max"/>
    <trip id="hour_16_2214" depart="57629.99" from="185260338" to="275056710" fromTaz="origin-X20Y25" toTaz="destination-X4Y30" departLane="free" departSpeed="max"/>
    <trip id="hour_16_2659" depart="57630.10" from="24821181" to="290538999" fromTaz="origin-X4Y30" toTaz="destination-X19Y25" departLane="free" departSpeed="max"/>
    <trip id="hour_16_2690" depart="57630.18" from="24821181" to="290538999" fromTaz="origin-X4Y30" toTaz="destination-X19Y25" departLane="free" departSpeed="max"/>
    <trip id="hour_16_81" depart="57630.86" from="164785142" to="452051334" fromTaz="fringe-X11Y4" toTaz="destination-X7Y1" departLane="free" departSpeed="max"/>
    <trip id="hour_16_2631" depart="57630.87" from="24821181" to="290538999" fromTaz="origin-X4Y30" toTaz="destination-X19Y25" departLane="free" departSpeed="max"/>
    <trip id="hour_16_493" depart="57630.89" from="326780459" to="-24793256" fromTaz="fringe-X19Y22" toTaz="fringe-X23Y16" departLane="free" departSpeed="max"/>
    <trip id="hour_16_2172" depart="57630.97" from="185260338" to="275056710" fromTaz="origin-X20Y25" toTaz="destination-X4Y30" departLane="free" departSpeed="max"/>
    <trip id="hour_16_2574" depart="57631.13" from="24821181" to="290538999" fromTaz="origin-X4Y30" toTaz="destination-X19Y25" departLane="free" departSpeed="max"/>
    <trip id="hour_16_235" depart="57631.69" from="237130850" to="452051334" fromTaz="fringe-X16Y26" toTaz="destination-X7Y1" departLane="free" departSpeed="max"/>
    <trip id="hour_16_1731" depart="57631.73" from="11939527117" to="275056710" fromTaz="grid-X4Y28" toTaz="destination-X4Y30" departLane="free" departSpeed="max"/>
    <trip id="hour_16_2603" depart="57631.88" from="24821181" to="290538999" fromTaz="origin-X4Y30" toTaz="destination-X19Y25" departLane="free" departSpeed="max"/>
    <trip id="hour_16_1261" depart="57632.14" from="451730193" to="452051334" fromTaz="grid-X13Y5" toTaz="destination-X7Y1" departLane="free" departSpeed="max"/>
    <trip id="hour_16_944" depart="57632.26" from="326572941" to="275056710" fromTaz="fringe-X7Y28" toTaz="destination-X4Y30" departLane="free" departSpeed="max"/>
    <trip id="hour_16_252" depart="57632.34" from="11939526419" to="158346014" fromTaz="fringe-X16Y26" toTaz="fringe-X19Y10" departLane="free" departSpeed="max"/>
    <trip id="hour_16_2745" depart="57632.76" from="24821181" to="290538999" fromTaz="origin-X4Y30" toTaz="destination-X19Y25" departLane="free" departSpeed="max"/>
    <trip id="hour_16_1762" depart="57632.84" from="-428779736" to="275056710" fromTaz="grid-X5Y23" toTaz="destination-X4Y30" departLane="free" departSpeed="max"/>
    <trip id="hour_16_1929" depart="57632.93" from="71736662" to="52045883" fromTaz="grid-X8Y2" toTaz="fringe-X10Y1" departLane="free" departSpeed="max"/>
    <trip id="hour_16_635" depart="57633.25" from="-143075776" to="-375714879" fromTaz="fringe-X20Y21" toTaz="fringe-X18Y26" departLane="free" departSpeed="max"/>
    <trip id="hour_16_1222" depart="57633.34" from="11939526284" to="452051334" fromTaz="grid-X11Y4" toTaz="destination-X7Y1" departLane="free" departSpeed="max"/>
    <trip id="hour_16_221" depart="57633.49" from="326594940" to="290538999" fromTaz="fringe-X16Y26" toTaz="destination-X19Y25" departLane="free" departSpeed="max"/>
    <trip id="hour_16_615" depart="57633.54" from="143075776" to="275056710" fromTaz="fringe-X20Y21" toTaz="destination-X4Y30" departLane="free" departSpeed="max"/>
    <trip id="hour_16_1776" depart="57633.79" from="-11939541268" to="4414008" fromTaz="grid-X5Y26" toTaz="fringe-X19Y10" departLane="free" departSpeed="max"/>
    <trip id="hour_16_472" depart="57633.79" from="-326780459" to="143075776" fromTaz="fringe-X19Y22" toTaz="fringe-X20Y21" departLane="free" departSpeed="max"/>
    <trip id="hour_16_1232" depart="57634.84" from="290456883" to="290538999" fromTaz="grid-X12Y26" toTaz="destination-X19Y25" departLane="free" departSpeed="max"/>
    <trip id="hour_16_1159" depart="57635.56" from="-11939532466" to="275056710" fromTaz="grid-X10Y25" toTaz="destination-X4Y30" departLane="free" departSpeed="max"/>
    <trip id="hour_16_679" depart="57635.70" from="-12968189#1" to="375714879" fromTaz="fringe-X20Y7" toTaz="fringe-X18Y26" departLane="free" departSpeed="max"/>
    <trip id="hour_16_623" depart="57635.85" from="143075780" to="326594940" fromTaz="fringe-X20Y21" toTaz="fringe-X16Y26" departLane="free" departSpeed="max"/>
    <trip id="hour_16_23" depart="57635.86" from="-52045883" to="452051334" fromTaz="fringe-X10Y1" toTaz="destination-X7Y1" departLane="free" departSpeed="max"/>
    <trip id="hour_16_2723" depart="57635.90" from="24821181" to="290538999" fromTaz="origin-X4Y30" toTaz="destination-X19Y25" departLane="free" departSpeed="max"/>
    <trip id="hour_16_674" depart="57636.13" from="12968189#1" to="452051334" fromTaz="fringe-X20Y7" toTaz="destination-X7Y1" departLane="free" departSpeed="max"/>
    <trip id="hour_16_1504" depart="57636.70" from="-400567504" to="8896380" fromTaz="grid-X20Y7" toTaz="fringe-X23Y15" departLane="free" departSpeed="max"/>
    <trip id="hour_16_182" depart="57636.86" from="87194347" to="-452034567" fromTaz="fringe-X11Y4" toTaz="grid-X7Y1" departLane="free" departSpeed="max"/>
    <trip id="hour_16_2185" depart="57637.00" from="185260338" to="275056710" fromTaz="origin-X20Y25" toTaz="destination-X4Y30" departLane="free" departSpeed="max"/>
    <trip id="hour_16_285" depart="57637.11" from="150270059" to="12968189#1" fromTaz="fringe-X16Y26" toTaz="fringe-X20Y7" departLane="free" departSpeed="max"/>
    <trip id="hour_16_187" depart="57637.12" from="87194347" to="11939530890" fromTaz="fringe-X11Y4" toTaz="grid-X8Y2" departLane="free" departSpeed="max"/>
    <trip id="hour_16_1304" depart="57637.22" from="247882785" to="452051334" fromTaz="grid-X15Y6" toTaz="destination-X7Y1" departLane="free" departSpeed="max"/>
    <trip id="hour_16_272" depart="57637.27" from="150270059" to="143075776" fromTaz="fringe-X16Y26" toTaz="fringe-X20Y21" departLane="free" departSpeed="max"/>
    <trip id="hour_16_1653" depart="57637.39" from="11939531777" to="929240359" fromTaz="grid-X2Y22" toTaz="fringe-X7Y28" departLane="free" departSpeed="max"/>
    <trip id="hour_16_12" depart="57637.69" from="-52045883" to="452051334" fromTaz="fringe-X10Y1" toTaz="destination-X7Y1" departLane="free" departSpeed="max"/>
    <trip id="hour_16_483" depart="57637.74" from="326780459" to="12968189#1" fromTaz="fringe-X19Y22" toTaz="fringe-X20Y7" departLane="free" departSpeed="max"/>
    <trip id="hour_16_2726" depart="57637.87" from="24821181" to="290538999" fromTaz="origin-X4Y30" toTaz="destination-X19Y25" departLane="free" departSpeed="max"/>
    <trip id="hour_16_2789" depart="57637.96" from="24821181" to="11939532269" fromTaz="origin-X4Y30" toTaz="grid-X10Y25" departLane="free" departSpeed="max"/>
    <trip id="hour_16_1999" depart="57637.97" from="987011928" to="654765962" fromTaz="grid-X8Y3" toTaz="fringe-X16Y17" departLane="free" departSpeed="max"/>
    <trip id="hour_16_1411" depart="57638.89" from="-346397321" to="452051334" fromTaz="grid-X19Y7" toTaz="destination-X7Y1" departLane="free" departSpeed="max"/>
    <trip id="hour_16_1916" depart="57638.94" from="11939541590" to="452051334" fromTaz="grid-X8Y2" toTaz="destination-X7Y1" departLane="free" departSpeed="max"/>
    <trip id="hour_16_292" depart="57639.02" from="24711105" to="12968189#1" fromTaz="fringe-X16Y26" toTaz="fringe-X20Y7" departLane="free" departSpeed="max"/>
    <trip id="hour_16_958" depart="57639.29" from="326572945" to="275056710" fromTaz="fringe-X7Y28" toTaz="destination-X4Y30" departLane="free" departSpeed="max"/>
    <trip id="hour_16_203" depart="57639.30" from="11939526419" to="290538999" fromTaz="fringe-X16Y26" toTaz="destination-X19Y25" departLane="free" departSpeed="max"/>
    <trip id="hour_16_259" depart="57639.43" from="24711105" to="158347370" fromTaz="fringe-X16Y26" toTaz="fringe-X19Y10" departLane="free" departSpeed="max"/>
    <trip id="hour_16_186" depart="57639.70" from="164785142" to="452034570" fromTaz="fringe-X11Y4" toTaz="grid-X8Y1" departLane="free" departSpeed="max"/>
    <trip id="hour_16_2423" depart="57639.97" from="185260338" to="275056710" fromTaz="origin-X20Y25" toTaz="destination-X4Y30" departLane="free" departSpeed="max"/>
    <trip id="hour_16_62" depart="57640.24" from="164785144" to="452051334" fromTaz="fringe-X11Y4" toTaz="destination-X7Y1" departLane="free" departSpeed="max"/>
    <trip id="hour_16_1663" depart="57640.36" from="123519038" to="-958174516" fromTaz="grid-X2Y25" toTaz="fringe-X1Y23" departLane="free" departSpeed="max"/>
    <trip id="hour_16_854" depart="57640.97" from="-24793256" to="452051334" fromTaz="fringe-X23Y16" toTaz="destination-X7Y1" departLane="free" departSpeed="max"/>
    <trip id="hour_16_1313" depart="57641.06" from="11939527963" to="275056710" fromTaz="grid-X16Y17" toTaz="destination-X4Y30" departLane="free" departSpeed="max"/>
    <trip id="hour_16_344" depart="57641.59" from="326594940" to="-134105523" fromTaz="fringe-X16Y26" toTaz="fringe-X24Y16" departLane="free" departSpeed="max"/>
    <trip id="hour_16_1801" depart="57641.83" from="199353433" to="275056710" fromTaz="grid-X5Y27" toTaz="destination-X4Y30" departLane="free" departSpeed="max"/>
    <trip id="hour_16_1015" depart="57642.10" from="-326572945" to="134105523" fromTaz="fringe-X7Y28" toTaz="fringe-X24Y16" departLane="free" departSpeed="max"/>
    <trip id="hour_16_74" depart="57642.16" from="87194347" to="452051334" fromTaz="fringe-X11Y4" toTaz="destination-X7Y1" departLane="free" departSpeed="max"/>
    <trip id="hour_16_2910" depart="57642.49" from="452051337" to="307024527" fromTaz="origin-X7Y1" toTaz="fringe-X23Y15" departLane="free" departSpeed="max"/>
    <trip id="hour_16_1575" depart="57642.51" from="-121921452" to="452051334" fromTaz="grid-X22Y11" toTaz="destination-X7Y1" departLane="free" departSpeed="max"/>
    <trip id="hour_16_1018" depart="57642.59" from="326572941" to="11939539680" fromTaz="fringe-X7Y28" toTaz="grid-X10Y19" departLane="free" departSpeed="max"/>
    <trip id="hour_16_1150" depart="57642.84" from="-11939531318" to="154716118" fromTaz="grid-X10Y24" toTaz="fringe-X7Y28" departLane="free" departSpeed="max"/>
    <trip id="hour_16_1309" depart="57643.74" from="231309154" to="-375714879" fromTaz="grid-X15Y6" toTaz="fringe-X18Y26" departLane="free" departSpeed="max"/>
    <trip id="hour_16_319" depart="57643.83" from="150270054" to="307024526" fromTaz="fringe-X16Y26" toTaz="fringe-X23Y15" departLane="free" departSpeed="max"/>
    <trip id="hour_16_1136" depart="57644.80" from="-737717192" to="275056710" fromTaz="grid-X10Y21" toTaz="destination-X4Y30" departLane="free" departSpeed="max"/>
    <trip id="hour_16_1286" depart="57644.99" from="11939548477" to="290538999" fromTaz="grid-X15Y5" toTaz="destination-X19Y25" departLane="free" departSpeed="max"/>
    <trip id="hour_16_2497" depart="57645.59" from="24821181" to="290538999" fromTaz="origin-X4Y30" toTaz="destination-X19Y25" departLane="free" departSpeed="max"/>
    <trip id="hour_16_1938" depart="57645.60" from="-46650702" to="158346347" fromTaz="grid-X8Y2" toTaz="fringe-X19Y10" departLane="free" departSpeed="max"/>
    <trip id="hour_16_2244" depart="57646.26" from="185260338" to="275056710" fromTaz="origin-X20Y25" toTaz="destination-X4Y30" departLane="free" departSpeed="max"/>
    <trip id="hour_16_1716" depart="57646.55" from="11939526725" to="290538999" fromTaz="grid-X4Y26" toTaz="destination-X19Y25" departLane="free" departSpeed="max"/>
    <trip id="hour_16_1121" depart="57646.57" from="45569875" to="452051334" fromTaz="grid-X10Y1" toTaz="destination-X7Y1" departLane="free" departSpeed="max"/>
    <trip id="hour_16_2316" depart="57646.79" from="185260338" to="275056710" fromTaz="origin-X20Y25" toTaz="destination-X4Y30" departLane="free" departSpeed="max"/>
    <trip id="hour_16_2721" depart="57646.82" from="24821181" to="290538999" fromTaz="origin-X4Y30" toTaz="destination-X19Y25" departLane="free" departSpeed="max"/>
    <trip id="hour_16_711" depart="57647.16" from="-12968189#1" to="307024527" fromTaz="fringe-X20Y7" toTaz="fringe-X23Y15" departLane="free" departSpeed="max"/>
    <trip id="hour_16_2816" depart="57647.24" from="24821181" to="-11939546966" fromTaz="origin-X4Y30" toTaz="grid-X9Y24" departLane="free" departSpeed="max"/>
    <trip id="hour_16_2617" depart="57647.65" from="24821181" to="290538999" fromTaz="origin-X4Y30" toTaz="destination-X19Y25" departLane="free" departSpeed="max"/>
    <trip id="hour_16_873" depart="57647.81" from="24793256" to="375714879" fromTaz="fringe-X23Y16" toTaz="fringe-X18Y26" departLane="free" departSpeed="max"/>
    <trip id="hour_16_775" depart="57648.42" from="121921459" to="287201448" fromTaz="fringe-X22Y11" toTaz="fringe-X18Y9" departLane="free" departSpeed="max"/>
    <trip id="hour_16_1328" depart="57648.50" from="11939547107" to="452051334" fromTaz="grid-X16Y6" toTaz="destination-X7Y1" departLane="free" departSpeed="max"/>
    <trip id="hour_16_2181" depart="57648.60" from="185260338" to="275056710" fromTaz="origin-X20Y25" toTaz="destination-X4Y30" departLane="free" departSpeed="max"/>
    <trip id="hour_16_538" depart="57648.60" from="185406398" to="5213455" fromTaz="fringe-X1Y22" toTaz="fringe-X7Y28" departLane="free" departSpeed="max"/>
    <trip id="hour_16_619" depart="57648.71" from="143075780" to="275056710" fromTaz="fringe-X20Y21" toTaz="destination-X4Y30" departLane="free" departSpeed="max"/>
    <trip id="hour_16_633" depart="57649.01" from="143075776" to="11939526419" fromTaz="fringe-X20Y21" toTaz="fringe-X16Y26" departLane="free" departSpeed="max"/>
    <trip id="hour_16_2118" depart="57649.06" from="-735174819" to="275056710" fromTaz="grid-X9Y24" toTaz="destination-X4Y30" departLane="free" departSpeed="max"/>
    <trip id="hour_16_2621" depart="57649.53" from="24821181" to="290538999" fromTaz="origin-X4Y30" toTaz="destination-X19Y25" departLane="free" departSpeed="max"/>
    <trip id="hour_16_1826" depart="57649.85" from="-734247285" to="275056710" fromTaz="grid-X5Y28" toTaz="destination-X4Y30" departLane="free" departSpeed="max"/>
    <trip id="hour_16_2589" depart="57649.86" from="24821181" to="290538999" fromTaz="origin-X4Y30" toTaz="destination-X19Y25" departLane="free" departSpeed="max"/>
    <trip id="hour_16_2506" depart="57650.01" from="24821181" to="290538999" fromTaz="origin-X4Y30" toTaz="destination-X19Y25" departLane="free" departSpeed="max"/>
    <trip id="hour_16_2119" depart="57650.08" from="-735174820" to="287201448" fromTaz="grid-X9Y24" toTaz="fringe-X18Y9" departLane="free" departSpeed="max"/>
    <trip id="hour_16_779" depart="57650.32" from="121921459" to="158347370" fromTaz="fringe-X22Y11" toTaz="fringe-X19Y10" departLane="free" departSpeed="max"/>