<?xml version="1.0" encoding="UTF-8"?>

<routes xmlns:xsi="http://www.w3.org/2001/XMLSchema-instance" xsi:noNamespaceSchemaLocation="http://sumo.dlr.de/xsd/routes_file.xsd">
    <trip id="hour_12_1978" depart="43200.19" from="-155094219" to="10666718" fromTaz="grid-X8Y3" toTaz="fringe-X19Y23" departLane="free" departSpeed="max"/>
    <trip id="hour_12_2477" depart="43200.90" from="24821181" to="290538999" fromTaz="origin-X4Y30" toTaz="destination-X19Y25" departLane="free" departSpeed="max"/>
    <trip id="hour_12_2254" depart="43201.24" from="185260338" to="275056710" fromTaz="origin-X20Y25" toTaz="destination-X4Y30" departLane="free" departSpeed="max"/>
    <trip id="hour_12_845" depart="43201.28" from="-37850228" to="11939527556" fromTaz="fringe-X7Y0" toTaz="grid-X8Y1" departLane="free" departSpeed="max"/>
    <trip id="hour_12_1686" depart="43201.55" from="464599487" to="275056710" fromTaz="grid-X5Y26" toTaz="destination-X4Y30" departLane="free" departSpeed="max"/>
    <trip id="hour_12_1317" depart="43201.85" from="451704789" to="452051334" fromTaz="grid-X17Y6" toTaz="destination-X7Y1" departLane="free" departSpeed="max"/>
    <trip id="hour_12_2581" depart="43202.77" from="452051337" to="287201448" fromTaz="origin-X7Y1" toTaz="fringe-X18Y9" departLane="free" departSpeed="max"/>
    <trip id="hour_12_1027" depart="43202.92" from="5213455" to="-479358807" fromTaz="fringe-X7Y28" toTaz="fringe-X22Y14" departLane="free" departSpeed="max"/>
    <trip id="hour_12_671" depart="43203.14" from="143075780" to="-26619947" fromTaz="fringe-X20Y21" toTaz="grid-X5Y27" departLane="free" departSpeed="max"/>
    <trip id="hour_12_2307" depart="43203.46" from="24821181" to="290538999" fromTaz="origin-X4Y30" toTaz="destination-X19Y25" departLane="free" departSpeed="max"/>
    <trip id="hour_12_1401" depart="43203.53" from="11939541123" to="-134105523" fromTaz="grid-X20Y10" toTaz="fringe-X24Y16" departLane="free" departSpeed="max"/>
    <trip id="hour_12_795" depart="43205.00" from="-40425140" to="275056710" fromTaz="fringe-X4Y29" toTaz="destination-X4Y30" departLane="free" departSpeed="max"/>
    <trip id="hour_12_2433" depart="43206.09" from="24821181" to="290538999" fromTaz="origin-X4Y30" toTaz="destination-X19Y25" departLane="free" departSpeed="max"/>
    <trip id="hour_12_288" depart="43206.14" from="158346014" to="134105523" fromTaz="fringe-X19Y10" toTaz="fringe-X24Y16" departLane="free" departSpeed="max"/>
    <trip id="hour_12_60" depart="43206.36" from="164785142" to="452051334" fromTaz="fringe-X11Y4" toTaz="destination-X7Y1" departLane="free" departSpeed="max"/>
    <trip id="hour_12_2299" depart="43206.88" from="24821181" to="290538999" fromTaz="origin-X4Y30" toTaz="destination-X19Y25" departLane="free" departSpeed="max"/>
    <trip id="hour_12_464" depart="43206.97" from="958174516" to="275056710" fromTaz="fringe-X1Y23" toTaz="destination-X4Y30" departLane="free" departSpeed="max"/>
    <trip id="hour_12_494" depart="43207.29" from="-958174516" to="-11939543231" fromTaz="fringe-X1Y23" toTaz="grid-X3Y26" departLane="free" departSpeed="max"/>
    <trip id="hour_12_2443" depart="43207.37" from="24821181" to="290538999" fromTaz="origin-X4Y30" toTaz="destination-X19Y25" departLane="free" departSpeed="max"/>
    <trip id="hour_12_42" depart="43207.38" from="87194342" to="452051334" fromTaz="fringe-X11Y4" toTaz="destination-X7Y1" departLane="free" departSpeed="max"/>
    <trip id="hour_12_1949" depart="43207.55" from="-71890080" to="654765962" fromTaz="grid-X8Y3" toTaz="fringe-X16Y17" departLane="free" departSpeed="max"/>
    <trip id="hour_12_1498" depart="43208.39" from="11939535807" to="-12968189#1" fromTaz="grid-X21Y12" toTaz="fringe-X20Y7" departLane="free" departSpeed="max"/>
    <trip id="hour_12_300" depart="43208.55" from="326780459" to="12968189#1" fromTaz="fringe-X19Y22" toTaz="fringe-X20Y7" departLane="free" departSpeed="max"/>
    <trip id="hour_12_498" depart="43208.91" from="143075776" to="290538999" fromTaz="fringe-X20Y21" toTaz="destination-X19Y25" departLane="free" departSpeed="max"/>
    <trip id="hour_12_1875" depart="43209.29" from="316414576" to="307024527" fromTaz="grid-X8Y2" toTaz="fringe-X23Y15" departLane="free" departSpeed="max"/>
    <trip id="hour_12_1569" depart="43210.16" from="-361702766" to="290538999" fromTaz="grid-X2Y22" toTaz="destination-X19Y25" departLane="free" departSpeed="max"/>
    <trip id="hour_12_222" depart="43211.12" from="-375714879" to="290538999" fromTaz="fringe-X18Y26" toTaz="destination-X19Y25" departLane="free" departSpeed="max"/>
    <trip id="hour_12_1296" depart="43211.98" from="-22997467" to="375714879" fromTaz="grid-X16Y6" toTaz="fringe-X18Y26" departLane="free" departSpeed="max"/>
    <trip id="hour_12_1454" depart="43212.02" from="-171019100" to="158346014" fromTaz="grid-X21Y11" toTaz="fringe-X19Y10" departLane="free" departSpeed="max"/>
    <trip id="hour_12_2420" depart="43212.48" from="24821181" to="290538999" fromTaz="origin-X4Y30" toTaz="destination-X19Y25" departLane="free" departSpeed="max"/>
    <trip id="hour_12_1524" depart="43212.61" from="161227126" to="452051334" fromTaz="grid-X22Y13" toTaz="destination-X7Y1" departLane="free" departSpeed="max"/>
    <trip id="hour_12_2502" depart="43212.68" from="24821181" to="290538999" fromTaz="origin-X4Y30" toTaz="destination-X19Y25" departLane="free" departSpeed="max"/>
    <trip id="hour_12_481" depart="43212.98" from="958174516" to="275056710" fromTaz="fringe-X1Y23" toTaz="destination-X4Y30" departLane="free" departSpeed="max"/>
    <trip id="hour_12_2566" depart="43213.10" from="452051337" to="290538999" fromTaz="origin-X7Y1" toTaz="destination-X19Y25" departLane="free" departSpeed="max"/>
    <trip id="hour_12_66" depart="43213.56" from="164785142" to="452051334" fromTaz="fringe-X11Y4" toTaz="destination-X7Y1" departLane="free" departSpeed="max"/>
    <trip id="hour_12_2633" depart="43213.58" from="452051337" to="451704786" fromTaz="origin-X7Y1" toTaz="grid-X17Y6" departLane="free" departSpeed="max"/>
    <trip id="hour_12_1532" depart="43213.78" from="-658934392" to="452051334" fromTaz="grid-X23Y14" toTaz="destination-X7Y1" departLane="free" departSpeed="max"/>
    <trip id="hour_12_1938" depart="43214.41" from="987011928" to="452051334" fromTaz="grid-X8Y3" toTaz="destination-X7Y1" departLane="free" departSpeed="max"/>
    <trip id="hour_12_2407" depart="43215.14" from="24821181" to="290538999" fromTaz="origin-X4Y30" toTaz="destination-X19Y25" departLane="free" departSpeed="max"/>
    <trip id="hour_12_983" depart="43215.27" from="929240359" to="-12968189#1" fromTaz="fringe-X7Y28" toTaz="fringe-X20Y7" departLane="free" departSpeed="max"/>
    <trip id="hour_12_1817" depart="43215.34" from="-11939549650" to="-479358807" fromTaz="grid-X7Y23" toTaz="fringe-X22Y14" departLane="free" departSpeed="max"/>
    <trip id="hour_12_760" depart="43215.70" from="-134105523" to="452051334" fromTaz="fringe-X24Y16" toTaz="destination-X7Y1" departLane="free" departSpeed="max"/>
    <trip id="hour_12_125" depart="43215.72" from="164785144" to="11939550191" fromTaz="fringe-X11Y4" toTaz="grid-X19Y8" departLane="free" departSpeed="max"/>
    <trip id="hour_12_975" depart="43215.75" from="929240359" to="-12968189#1" fromTaz="fringe-X7Y28" toTaz="fringe-X20Y7" departLane="free" departSpeed="max"/>
    <trip id="hour_12_2303" depart="43215.90" from="24821181" to="290538999" fromTaz="origin-X4Y30" toTaz="destination-X19Y25" departLane="free" departSpeed="max"/>
    <trip id="hour_12_1230" depart="43216.08" from="-11939549119" to="275056710" fromTaz="grid-X12Y26" toTaz="destination-X4Y30" departLane="free" departSpeed="max"/>
    <trip id="hour_12_2084" depart="43216.72" from="185260338" to="275056710" fromTaz="origin-X20Y25" toTaz="destination-X4Y30" departLane="free" departSpeed="max"/>
    <trip id="hour_12_841" depart="43217.13" from="-37850228" to="38085852" fromTaz="fringe-X7Y0" toTaz="grid-X10Y2" departLane="free" departSpeed="max"/>
    <trip id="hour_12_415" depart="43217.18" from="-10666718" to="275056710" fromTaz="fringe-X19Y23" toTaz="destination-X4Y30" departLane="free" departSpeed="max"/>
    <trip id="hour_12_106" depart="43217.50" from="87194342" to="237582244" fromTaz="fringe-X11Y4" toTaz="fringe-X1Y12" departLane="free" departSpeed="max"/>
    <trip id="hour_12_163" depart="43217.83" from="87194347" to="543379926" fromTaz="fringe-X11Y4" toTaz="grid-X9Y2" departLane="free" departSpeed="max"/>
    <trip id="hour_12_2080" depart="43217.91" from="185260338" to="275056710" fromTaz="origin-X20Y25" toTaz="destination-X4Y30" departLane="free" departSpeed="max"/>
    <trip id="hour_12_10" depart="43218.39" from="52045883" to="452051334" fromTaz="fringe-X10Y1" toTaz="destination-X7Y1" departLane="free" departSpeed="max"/>
    <trip id="hour_12_199" depart="43218.68" from="11939526419" to="275056710" fromTaz="fringe-X16Y26" toTaz="destination-X4Y30" departLane="free" departSpeed="max"/>
    <trip id="hour_12_1856" depart="43219.32" from="-43846138" to="-10666718" fromTaz="grid-X8Y2" toTaz="fringe-X19Y23" departLane="free" departSpeed="max"/>
    <trip id="hour_12_1352" depart="43219.49" from="11939546669" to="307024526" fromTaz="grid-X17Y7" toTaz="fringe-X23Y15" departLane="free" departSpeed="max"/>
    <trip id="hour_12_27" depart="43219.60" from="87194342" to="452051334" fromTaz="fringe-X11Y4" toTaz="destination-X7Y1" departLane="free" departSpeed="max"/>
    <trip id="hour_12_376" depart="43219.61" from="-10666718" to="290538999" fromTaz="fringe-X19Y23" toTaz="destination-X19Y25" departLane="free" departSpeed="max"/>
    <trip id="hour_12_1053" depart="43219.64" from="5213455" to="307024527" fromTaz="fringe-X7Y28" toTaz="fringe-X23Y15" departLane="free" departSpeed="max"/>
    <trip id="hour_12_1994" depart="43219.66" from="71890080" to="307023793" fromTaz="grid-X8Y3" toTaz="fringe-X23Y15" departLane="free" departSpeed="max"/>
    <trip id="hour_12_1744" depart="43219.71" from="929258351" to="290538999" fromTaz="grid-X6Y21" toTaz="destination-X19Y25" departLane="free" departSpeed="max"/>
    <trip id="hour_12_2277" depart="43219.73" from="185260338" to="275056710" fromTaz="origin-X20Y25" toTaz="destination-X4Y30" departLane="free" departSpeed="max"/>
    <trip id="hour_12_2222" depart="43219.83" from="185260338" to="275056710" fromTaz="origin-X20Y25" toTaz="destination-X4Y30" departLane="free" departSpeed="max"/>
    <trip id="hour_12_2425" depart="43220.18" from="24821181" to="290538999" fromTaz="origin-X4Y30" toTaz="destination-X19Y25" departLane="free" departSpeed="max"/>
    <trip id="hour_12_2131" depart="43220.25" from="185260338" to="275056710" fromTaz="origin-X20Y25" toTaz="destination-X4Y30" departLane="free" departSpeed="max"/>
    <trip id="hour_12_2249" depart="43220.36" from="185260338" to="275056710" fromTaz="origin-X20Y25" toTaz="destination-X4Y30" departLane="free" departSpeed="max"/>
    <trip id="hour_12_685" depart="43220.47" from="12968189#1" to="452051334" fromTaz="fringe-X20Y7" toTaz="destination-X7Y1" departLane="free" departSpeed="max"/>
    <trip id="hour_12_1832" depart="43221.20" from="-452034559" to="452051334" fromTaz="grid-X8Y2" toTaz="destination-X7Y1" departLane="free" departSpeed="max"/>
    <trip id="hour_12_1843" depart="43221.26" from="-452034559" to="452051334" fromTaz="grid-X8Y2" toTaz="destination-X7Y1" departLane="free" departSpeed="max"/>
    <trip id="hour_12_2554" depart="43221.41" from="452051337" to="290538999" fromTaz="origin-X7Y1" toTaz="destination-X19Y25" departLane="free" departSpeed="max"/>
    <trip id="hour_12_2543" depart="43221.90" from="24821181" to="-11939549865" fromTaz="origin-X4Y30" toTaz="grid-X9Y21" departLane="free" departSpeed="max"/>
    <trip id="hour_12_1905" depart="43222.64" from="-11939532048" to="929240359" fromTaz="grid-X8Y2" toTaz="fringe-X7Y28" departLane="free" departSpeed="max"/>
    <trip id="hour_12_757" depart="43223.51" from="-134105523" to="452051334" fromTaz="fringe-X24Y16" toTaz="destination-X7Y1" departLane="free" departSpeed="max"/>
    <trip id="hour_12_596" depart="43223.70" from="143075780" to="375714879" fromTaz="fringe-X20Y21" toTaz="fringe-X18Y26" departLane="free" departSpeed="max"/>
    <trip id="hour_12_1964" depart="43223.86" from="71890079" to="5058806" fromTaz="grid-X8Y3" toTaz="fringe-X18Y9" departLane="free" departSpeed="max"/>
    <trip id="hour_12_1057" depart="43223.89" from="326572941" to="24793256" fromTaz="fringe-X7Y28" toTaz="fringe-X23Y16" departLane="free" departSpeed="max"/>
    <trip id="hour_12_1075" depart="43224.17" from="326572941" to="134105523" fromTaz="fringe-X7Y28" toTaz="fringe-X24Y16" departLane="free" departSpeed="max"/>
    <trip id="hour_12_870" depart="43224.58" from="-326572945" to="275056710" fromTaz="fringe-X7Y28" toTaz="destination-X4Y30" departLane="free" departSpeed="max"/>
    <trip id="hour_12_1558" depart="43224.89" from="1188704304" to="452051334" fromTaz="grid-X24Y16" toTaz="destination-X7Y1" departLane="free" departSpeed="max"/>
    <trip id="hour_12_580" depart="43224.98" from="-143075776" to="24711107" fromTaz="fringe-X20Y21" toTaz="fringe-X16Y26" departLane="free" departSpeed="max"/>
    <trip id="hour_12_18" depart="43225.67" from="-52045883" to="11939526284" fromTaz="fringe-X10Y1" toTaz="grid-X11Y4" departLane="free" departSpeed="max"/>
    <trip id="hour_12_633" depart="43225.91" from="-143075776" to="10666718" fromTaz="fringe-X20Y21" toTaz="fringe-X19Y23" departLane="free" departSpeed="max"/>
    <trip id="hour_12_792" depart="43226.00" from="40425140" to="275056710" fromTaz="fringe-X4Y29" toTaz="destination-X4Y30" departLane="free" departSpeed="max"/>
    <trip id="hour_12_1457" depart="43226.38" from="331714238" to="158347370" fromTaz="grid-X21Y11" toTaz="fringe-X19Y10" departLane="free" departSpeed="max"/>
    <trip id="hour_12_1320" depart="43226.53" from="451704789" to="452051334" fromTaz="grid-X17Y6" toTaz="destination-X7Y1" departLane="free" departSpeed="max"/>
    <trip id="hour_12_1113" depart="43226.64" from="-326572945" to="11939542423" fromTaz="fringe-X7Y28" toTaz="grid-X23Y14" departLane="free" departSpeed="max"/>
    <trip id="hour_12_57" depart="43227.48" from="164785142" to="452051334" fromTaz="fringe-X11Y4" toTaz="destination-X7Y1" departLane="free" departSpeed="max"/>
    <trip id="hour_12_2591" depart="43227.65" from="452051337" to="12968189#1" fromTaz="origin-X7Y1" toTaz="fringe-X20Y7" departLane="free" departSpeed="max"/>
    <trip id="hour_12_1477" depart="43228.53" from="11939535807" to="452051334" fromTaz="grid-X21Y12" toTaz="destination-X7Y1" departLane="free" departSpeed="max"/>
    <trip id="hour_12_1191" depart="43228.78" from="-1131051093" to="275056710" fromTaz="grid-X11Y25" toTaz="destination-X4Y30" departLane="free" departSpeed="max"/>
    <trip id="hour_12_1069" depart="43229.50" from="929240359" to="-24793256" fromTaz="fringe-X7Y28" toTaz="fringe-X23Y16" departLane="free" departSpeed="max"/>
    <trip id="hour_12_2093" depart="43229.78" from="185260338" to="275056710" fromTaz="origin-X20Y25" toTaz="destination-X4Y30" departLane="free" departSpeed="max"/>
    <trip id="hour_12_727" depart="43229.82" from="-24793256" to="290538999" fromTaz="fringe-X23Y16" toTaz="destination-X19Y25" departLane="free" departSpeed="max"/>
    <trip id="hour_12_2238" depart="43229.99" from="185260338" to="275056710" fromTaz="origin-X20Y25" toTaz="destination-X4Y30" departLane="free" departSpeed="max"/>
    <trip id="hour_12_2664" depart="43230.10" from="452051337" to="-11939533350" fromTaz="origin-X7Y1" toTaz="grid-X6Y16" departLane="free" departSpeed="max"/>
    <trip id="hour_12_1765" depart="43230.26" from="-930774590" to="8896380" fromTaz="grid-X6Y23" toTaz="fringe-X23Y15" departLane="free" departSpeed="max"/>
    <trip id="hour_12_81" depart="43230.86" from="164785142" to="452051334" fromTaz="fringe-X11Y4" toTaz="destination-X7Y1" departLane="free" departSpeed="max"/>
    <trip id="hour_12_484" depart="43230.89" from="-958174516" to="11939534991" fromTaz="fringe-X1Y23" toTaz="grid-X2Y25" departLane="free" departSpeed="max"/>
    <trip id="hour_12_2196" depart="43230.97" from="185260338" to="275056710" fromTaz="origin-X20Y25" toTaz="destination-X4Y30" departLane="free" departSpeed="max"/>
    <trip id="hour_12_2590" depart="43231.13" from="452051337" to="-12968189#1" fromTaz="origin-X7Y1" toTaz="fringe-X20Y7" departLane="free" departSpeed="max"/>
    <trip id="hour_12_1935" depart="43231.33" from="71890080" to="452051334" fromTaz="grid-X8Y3" toTaz="destination-X7Y1" departLane="free" departSpeed="max"/>
    <trip id="hour_12_232" depart="43231.69" from="375714879" to="290538999" fromTaz="fringe-X18Y26" toTaz="destination-X19Y25" departLane="free" departSpeed="max"/>
    <trip id="hour_12_2618" depart="43231.88" from="452051337" to="24793256" fromTaz="origin-X7Y1" toTaz="fringe-X23Y16" departLane="free" departSpeed="max"/>
    <trip id="hour_12_944" depart="43232.26" from="326572941" to="143075780" fromTaz="fringe-X7Y28" toTaz="fringe-X20Y21" departLane="free" departSpeed="max"/>
    <trip id="hour_12_248" depart="43232.34" from="-375714879" to="-143075780" fromTaz="fringe-X18Y26" toTaz="fringe-X20Y21" departLane="free" departSpeed="max"/>
    <trip id="hour_12_1629" depart="43232.80" from="51850830" to="275056710" fromTaz="grid-X4Y27" toTaz="destination-X4Y30" departLane="free" departSpeed="max"/>
    <trip id="hour_12_2059" depart="43232.95" from="185260338" to="275056710" fromTaz="origin-X20Y25" toTaz="destination-X4Y30" departLane="free" departSpeed="max"/>
    <trip id="hour_12_648" depart="43233.25" from="-143075776" to="12968189#1" fromTaz="fringe-X20Y21" toTaz="fringe-X20Y7" departLane="free" departSpeed="max"/>
    <trip id="hour_12_2105" depart="43233.27" from="185260338" to="275056710" fromTaz="origin-X20Y25" toTaz="destination-X4Y30" departLane="free" departSpeed="max"/>
    <trip id="hour_12_1221" depart="43233.34" from="11939526284" to="452051334" fromTaz="grid-X11Y4" toTaz="destination-X7Y1" departLane="free" departSpeed="max"/>
    <trip id="hour_12_1398" depart="43233.96" from="-184785911" to="8896380" fromTaz="grid-X20Y10" toTaz="fringe-X23Y15" departLane="free" departSpeed="max"/>
    <trip id="hour_12_1745" depart="43234.90" from="929258351" to="275056710" fromTaz="grid-X6Y21" toTaz="destination-X4Y30" departLane="free" departSpeed="max"/>
    <trip id="hour_12_1570" depart="43235.18" from="-24798932" to="275056710" fromTaz="grid-X2Y22" toTaz="destination-X4Y30" departLane="free" departSpeed="max"/>
    <trip id="hour_12_680" depart="43236.13" from="12968189#1" to="452051334" fromTaz="fringe-X20Y7" toTaz="destination-X7Y1" departLane="free" departSpeed="max"/>
    <trip id="hour_12_1177" depart="43236.35" from="11939540185" to="452051334" fromTaz="grid-X10Y3" toTaz="destination-X7Y1" departLane="free" departSpeed="max"/>
    <trip id="hour_12_237" depart="43236.69" from="-375714879" to="287201448" fromTaz="fringe-X18Y26" toTaz="fringe-X18Y9" departLane="free" departSpeed="max"/>
    <trip id="hour_12_1512" depart="43236.70" from="-122715735" to="452051334" fromTaz="grid-X22Y11" toTaz="destination-X7Y1" departLane="free" departSpeed="max"/>
    <trip id="hour_12_2209" depart="43237.00" from="185260338" to="275056710" fromTaz="origin-X20Y25" toTaz="destination-X4Y30" departLane="free" departSpeed="max"/>
    <trip id="hour_12_278" depart="43237.11" from="158346014" to="452051334" fromTaz="fringe-X19Y10" toTaz="destination-X7Y1" departLane="free" departSpeed="max"/>
    <trip id="hour_12_185" depart="43237.12" from="24711105" to="290538999" fromTaz="fringe-X16Y26" toTaz="destination-X19Y25" departLane="free" departSpeed="max"/>
    <trip id="hour_12_1692" depart="43237.17" from="-68468562" to="275056710" fromTaz="grid-X5Y27" toTaz="destination-X4Y30" departLane="free" departSpeed="max"/>
    <trip id="hour_12_12" depart="43237.69" from="-52045883" to="452051334" fromTaz="fringe-X10Y1" toTaz="destination-X7Y1" departLane="free" departSpeed="max"/>
    <trip id="hour_12_1261" depart="43237.71" from="11939548477" to="452051334" fromTaz="grid-X15Y5" toTaz="destination-X7Y1" departLane="free" departSpeed="max"/>
    <trip id="hour_12_925" depart="43238.12" from="-326572945" to="-143075776" fromTaz="fringe-X7Y28" toTaz="fringe-X20Y21" departLane="free" departSpeed="max"/>
    <trip id="hour_12_2616" depart="43238.13" from="452051337" to="8896380" fromTaz="origin-X7Y1" toTaz="fringe-X23Y15" departLane="free" departSpeed="max"/>
    <trip id="hour_12_1416" depart="43238.89" from="-171039413" to="-134105523" fromTaz="grid-X20Y11" toTaz="fringe-X24Y16" departLane="free" departSpeed="max"/>
    <trip id="hour_12_803" depart="43238.97" from="40425140" to="275056710" fromTaz="fringe-X4Y29" toTaz="destination-X4Y30" departLane="free" departSpeed="max"/>
    <trip id="hour_12_285" depart="43239.02" from="4414008" to="452051334" fromTaz="fringe-X19Y10" toTaz="destination-X7Y1" departLane="free" departSpeed="max"/>
    <trip id="hour_12_131" depart="43239.03" from="164785144" to="-11939539431" fromTaz="fringe-X11Y4" toTaz="grid-X2Y12" departLane="free" departSpeed="max"/>
    <trip id="hour_12_957" depart="43239.29" from="326572945" to="12968189#1" fromTaz="fringe-X7Y28" toTaz="fringe-X20Y7" departLane="free" departSpeed="max"/>
    <trip id="hour_12_201" depart="43239.30" from="11939526419" to="275056710" fromTaz="fringe-X16Y26" toTaz="destination-X4Y30" departLane="free" departSpeed="max"/>
    <trip id="hour_12_2600" depart="43239.54" from="452051337" to="-479358807" fromTaz="origin-X7Y1" toTaz="fringe-X22Y14" departLane="free" departSpeed="max"/>
    <trip id="hour_12_2446" depart="43239.97" from="24821181" to="290538999" fromTaz="origin-X4Y30" toTaz="destination-X19Y25" departLane="free" departSpeed="max"/>
    <trip id="hour_12_557" depart="43240.26" from="-143075776" to="275056710" fromTaz="fringe-X20Y21" toTaz="destination-X4Y30" departLane="free" departSpeed="max"/>
    <trip id="hour_12_846" depart="43240.97" from="37850228" to="-11939524866" fromTaz="fringe-X7Y0" toTaz="grid-X9Y2" departLane="free" departSpeed="max"/>
    <trip id="hour_12_40" depart="43241.55" from="87194347" to="452051334" fromTaz="fringe-X11Y4" toTaz="destination-X7Y1" departLane="free" departSpeed="max"/>
    <trip id="hour_12_336" depart="43241.59" from="326780459" to="-134105523" fromTaz="fringe-X19Y22" toTaz="fringe-X24Y16" departLane="free" departSpeed="max"/>
    <trip id="hour_12_1165" depart="43241.66" from="-11939537277" to="275056710" fromTaz="grid-X10Y25" toTaz="destination-X4Y30" departLane="free" departSpeed="max"/>
    <trip id="hour_12_1014" depart="43242.10" from="-326572945" to="-479358807" fromTaz="fringe-X7Y28" toTaz="fringe-X22Y14" departLane="free" departSpeed="max"/>
    <trip id="hour_12_74" depart="43242.16" from="87194347" to="452051334" fromTaz="fringe-X11Y4" toTaz="destination-X7Y1" departLane="free" departSpeed="max"/>
    <trip id="hour_12_627" depart="43242.34" from="143075780" to="-375714879" fromTaz="fringe-X20Y21" toTaz="fringe-X18Y26" departLane="free" departSpeed="max"/>
    <trip id="hour_12_1311" depart="43243.74" from="396808035" to="452051334" fromTaz="grid-X17Y6" toTaz="destination-X7Y1" departLane="free" departSpeed="max"/>
    <trip id="hour_12_311" depart="43243.83" from="326780459" to="307024526" fromTaz="fringe-X19Y22" toTaz="fringe-X23Y15" departLane="free" departSpeed="max"/>
    <trip id="hour_12_1137" depart="43244.80" from="-74096256" to="275056710" fromTaz="grid-X10Y20" toTaz="destination-X4Y30" departLane="free" departSpeed="max"/>
    <trip id="hour_12_1286" depart="43244.99" from="451704773" to="452051334" fromTaz="grid-X16Y6" toTaz="destination-X7Y1" departLane="free" departSpeed="max"/>
    <trip id="hour_12_2522" depart="43245.59" from="24821181" to="290538999" fromTaz="origin-X4Y30" toTaz="destination-X19Y25" departLane="free" departSpeed="max"/>
    <trip id="hour_12_2268" depart="43246.26" from="185260338" to="275056710" fromTaz="origin-X20Y25" toTaz="destination-X4Y30" departLane="free" departSpeed="max"/>
    <trip id="hour_12_1716" depart="43246.55" from="11939547038" to="452051334" fromTaz="grid-X5Y8" toTaz="destination-X7Y1" departLane="free" departSpeed="max"/>
    <trip id="hour_12_2339" depart="43246.79" from="24821181" to="290538999" fromTaz="origin-X4Y30" toTaz="destination-X19Y25" departLane="free" departSpeed="max"/>
    <trip id="hour_12_2601" depart="43246.85" from="452051337" to="479358807" fromTaz="origin-X7Y1" toTaz="fringe-X22Y14" departLane="free" departSpeed="max"/>
    <trip id="hour_12_1758" depart="43248.55" from="-930774590" to="275056710" fromTaz="grid-X6Y23" toTaz="destination-X4Y30" departLane="free" departSpeed="max"/>
    <trip id="hour_12_2205" depart="43248.60" from="185260338" to="275056710" fromTaz="origin-X20Y25" toTaz="destination-X4Y30" departLane="free" departSpeed="max"/>
    <trip id="hour_12_542" depart="43248.84" from="143075776" to="275056710" fromTaz="fringe-X20Y21" toTaz="destination-X4Y30" departLane="free" departSpeed="max"/>
    <trip id="hour_12_646" depart="43249.01" from="143075776" to="-10666718" fromTaz="fringe-X20Y21" toTaz="fringe-X19Y23" departLane="free" departSpeed="max"/>
    <trip id="hour_12_2138" depart="43249.06" from="185260338" to="275056710" fromTaz="origin-X20Y25" toTaz="destination-X4Y30" departLane="free" departSpeed="max"/>
    <trip id="hour_12_895" depart="43250.79" from="326572941" to="-654765962" fromTaz="fringe-X7Y28" toTaz="fringe-X16Y17" departLane="free" departSpeed="max"/>
    <trip id="hour_12_2364" depart="43251.15" from="24821181" to="290538999" fromTaz="origin-X4Y30" toTaz="destination-X19Y25" departLane="free" departSpeed="max"/>
    <trip id="hour_12_1071" depart="43251.17" from="-326572945" to="134105523" fromTaz="fringe-X7Y28" toTaz="fringe-X24Y16" departLane="free" departSpeed="max"/>
    <trip id="hour_12_477" depart="43251.44" from="958174516" to="275056710" fromTaz="fringe-X1Y23" toTaz="destination-X4Y30" departLane="free" departSpeed="max"/>
    <trip id="hour_12_876" depart="43251.97" from="929240359" to="275056710" fromTaz="fringe-X7Y28" toTaz="destination-X4Y30" departLane="free" departSpeed="max"/>
    <trip id="hour_12_613" depart="43252.35" from="143075780" to="375714879" fromTaz="fringe-X20Y21" toTaz="fringe-X18Y26" departLane="free" departSpeed="max"/>
    <trip id="hour_12_1351" depart="43252.37" from="451704791" to="-12968189#1" fromTaz="grid-X17Y7" toTaz="fringe-X20Y7" departLane="free" departSpeed="max"/>
    <trip id="hour_12_1245" depart="43252.75" from="11939537721" to="275056710" fromTaz="grid-X13Y19" toTaz="destination-X4Y30" departLane="free" departSpeed="max"/>
    <trip id="hour_12_1036" depart="43252.98" from="929240359" to="307024527" fromTaz="fringe-X7Y28" toTaz="fringe-X23Y15" departLane="free" departSpeed="max"/>
    <trip id="hour_12_352" depart="43253.09" from="326780459" to="1073984008" fromTaz="fringe-X19Y22" toTaz="grid-X22Y12" departLane="free" departSpeed="max"/>
    <trip id="hour_12_660" depart="43253.10" from="143075780" to="-134105523" fromTaz="fringe-X20Y21" toTaz="fringe-X24Y16" departLane="free" departSpeed="max"/>
    <trip id="hour_12_1399" depart="43253.34" from="11939523900" to="-24793256" fromTaz="grid-X20Y10" toTaz="fringe-X23Y16" departLane="free" departSpeed="max"/>
    <trip id="hour_12_2347" depart="43253.50" from="24821181" to="290538999" fromTaz="origin-X4Y30" toTaz="destination-X19Y25" departLane="free" departSpeed="max"/>
    <trip id="hour_12_548" depart="43253.69" from="143075780" to="275056710" fromTaz="fringe-X20Y21" toTaz="destination-X4Y30" departLane="free" departSpeed="max"/>
    <trip id="hour_12_1985" depart="43253.81" from="155094215" to="-12968189#1" fromTaz="grid-X8Y3" toTaz="fringe-X20Y7" departLane="free" departSpeed="max"/>
    <trip id="hour_12_1522" depart="43253.94" from="11939549568" to="452051334" fromTaz="grid-X22Y13" toTaz="destination-X7Y1" departLane="free" departSpeed="max"/>
    <trip id="hour_12_499" depart="43254.47" from="-143075776" to="290538999" fromTaz="fringe-X20Y21" toTaz="destination-X19Y25" departLane="free" departSpeed="max"/>
    <trip id="hour_12_425" depart="43254.60" from="326780462" to="375714879" fromTaz="fringe-X19Y23" toTaz="fringe-X18Y26" departLane="free" departSpeed="max"/>
    <trip id="hour_12_2038" depart="43254.72" from="735174816" to="290538999" fromTaz="grid-X9Y24" toTaz="destination-X19Y25" departLane="free" departSpeed="max"/>
    <trip id="hour_12_853" depart="43255.09" from="929240359" to="275056710" fromTaz="fringe-X7Y28" toTaz="destination-X4Y30" departLane="free" departSpeed="max"/>
    <trip id="hour_12_1210" depart="43255.39" from="-734928999" to="275056710" fromTaz="grid-X11Y26" toTaz="destination-X4Y30" departLane="free" departSpeed="max"/>
    <trip id="hour_12_6" depart="43255.65" from="-52045883" to="452051334" fromTaz="fringe-X10Y1" toTaz="destination-X7Y1" departLane="free" departSpeed="max"/>
    <trip id="hour_12_1222" depart="43255.68" from="11939537612" to="5058806" fromTaz="grid-X11Y4" toTaz="fringe-X18Y9" departLane="free" departSpeed="max"/>
    <trip id="hour_12_1614" depart="43256.20" from="-11939545746" to="275056710" fromTaz="grid-X3Y28" toTaz="destination-X4Y30" departLane="free" departSpeed="max"/>
    <trip id="hour_12_880" depart="43257.01" from="-326572945" to="275056710" fromTaz="fringe-X7Y28" toTaz="destination-X4Y30" departLane="free" departSpeed="max"/>
    <trip id="hour_12_2152" depart="43257.29" from="185260338" to="275056710" fromTaz="origin-X20Y25" toTaz="destination-X4Y30" departLane="free" departSpeed="max"/>
    <trip id="hour_12_1151" depart="43257.47" from="-11939531318" to="275056710" fromTaz="grid-X10Y24" toTaz="destination-X4Y30" departLane="free" departSpeed="max"/>
    <trip id="hour_12_579" depart="43258.21" from="143075776" to="150270054" fromTaz="fringe-X20Y21" toTaz="fringe-X16Y26" departLane="free" departSpeed="max"/>