<?xml version="1.0" encoding="UTF-8"?>

<routes xmlns:xsi="http://www.w3.org/2001/XMLSchema-instance" xsi:noNamespaceSchemaLocation="http://sumo.dlr.de/xsd/routes_file.xsd">
    <trip id="hour_13_2026" depart="46800.75" from="-11939535971" to="452051334" fromTaz="grid-X6Y18" toTaz="destination-X7Y1" departLane="free" departSpeed="max"/>
    <trip id="hour_13_2487" depart="46800.90" from="24821181" to="290538999" fromTaz="origin-X4Y30" toTaz="destination-X19Y25" departLane="free" departSpeed="max"/>
    <trip id="hour_13_2265" depart="46801.24" from="185260338" to="275056710" fromTaz="origin-X20Y25" toTaz="destination-X4Y30" departLane="free" departSpeed="max"/>
    <trip id="hour_13_1727" depart="46801.55" from="138757414" to="452051334" fromTaz="grid-X23Y14" toTaz="destination-X7Y1" departLane="free" departSpeed="max"/>
    <trip id="hour_13_525" depart="46802.75" from="-185406398" to="654765962" fromTaz="fringe-X1Y22" toTaz="fringe-X16Y17" departLane="free" departSpeed="max"/>
    <trip id="hour_13_1042" depart="46802.92" from="-37850228" to="11939526284" fromTaz="fringe-X7Y0" toTaz="grid-X11Y4" departLane="free" departSpeed="max"/>
    <trip id="hour_13_757" depart="46803.08" from="-479358807" to="307024527" fromTaz="fringe-X22Y14" toTaz="fringe-X23Y15" departLane="free" departSpeed="max"/>
    <trip id="hour_13_2319" depart="46803.46" from="185260338" to="275056710" fromTaz="origin-X20Y25" toTaz="destination-X4Y30" departLane="free" departSpeed="max"/>
    <trip id="hour_13_1421" depart="46803.53" from="11939547947" to="452051334" fromTaz="grid-X18Y7" toTaz="destination-X7Y1" departLane="free" departSpeed="max"/>
    <trip id="hour_13_486" depart="46804.77" from="10666718" to="275056710" fromTaz="fringe-X19Y23" toTaz="destination-X4Y30" departLane="free" departSpeed="max"/>
    <trip id="hour_13_812" depart="46805.00" from="24793256" to="375714879" fromTaz="fringe-X23Y16" toTaz="fringe-X18Y26" departLane="free" departSpeed="max"/>
    <trip id="hour_13_1964" depart="46805.34" from="-26619947" to="275056710" fromTaz="grid-X5Y27" toTaz="destination-X4Y30" departLane="free" departSpeed="max"/>
    <trip id="hour_13_2550" depart="46805.67" from="24821181" to="290538999" fromTaz="origin-X4Y30" toTaz="destination-X19Y25" departLane="free" departSpeed="max"/>
    <trip id="hour_13_294" depart="46806.14" from="375714879" to="-143075776" fromTaz="fringe-X18Y26" toTaz="fringe-X20Y21" departLane="free" departSpeed="max"/>
    <trip id="hour_13_57" depart="46806.36" from="164785142" to="452051334" fromTaz="fringe-X11Y4" toTaz="destination-X7Y1" departLane="free" departSpeed="max"/>
    <trip id="hour_13_2010" depart="46806.40" from="-11939538443" to="452051334" fromTaz="grid-X6Y14" toTaz="destination-X7Y1" departLane="free" departSpeed="max"/>
    <trip id="hour_13_474" depart="46806.97" from="326780462" to="290538999" fromTaz="fringe-X19Y23" toTaz="destination-X19Y25" departLane="free" departSpeed="max"/>
    <trip id="hour_13_39" depart="46807.38" from="87194342" to="452051334" fromTaz="fringe-X11Y4" toTaz="destination-X7Y1" departLane="free" departSpeed="max"/>
    <trip id="hour_13_2673" depart="46807.43" from="24821181" to="290538999" fromTaz="origin-X4Y30" toTaz="destination-X19Y25" departLane="free" departSpeed="max"/>
    <trip id="hour_13_308" depart="46808.55" from="-375714879" to="-143075776" fromTaz="fringe-X18Y26" toTaz="fringe-X20Y21" departLane="free" departSpeed="max"/>
    <trip id="hour_13_509" depart="46808.91" from="-10666718" to="-375714879" fromTaz="fringe-X19Y23" toTaz="fringe-X18Y26" departLane="free" departSpeed="max"/>
    <trip id="hour_13_1923" depart="46809.29" from="11939533284" to="654765962" fromTaz="grid-X5Y18" toTaz="fringe-X16Y17" departLane="free" departSpeed="max"/>
    <trip id="hour_13_1882" depart="46809.42" from="11939530548" to="275056710" fromTaz="grid-X4Y23" toTaz="destination-X4Y30" departLane="free" departSpeed="max"/>
    <trip id="hour_13_3006" depart="46809.43" from="452051337" to="-11939538897" fromTaz="origin-X7Y1" toTaz="grid-X20Y10" departLane="free" departSpeed="max"/>
    <trip id="hour_13_990" depart="46809.53" from="40425140" to="-958174516" fromTaz="fringe-X4Y29" toTaz="fringe-X1Y23" departLane="free" departSpeed="max"/>
    <trip id="hour_13_1893" depart="46809.92" from="51850830" to="275056710" fromTaz="grid-X4Y27" toTaz="destination-X4Y30" departLane="free" departSpeed="max"/>
    <trip id="hour_13_404" depart="46811.05" from="-326780459" to="452051334" fromTaz="fringe-X19Y22" toTaz="destination-X7Y1" departLane="free" departSpeed="max"/>
    <trip id="hour_13_225" depart="46811.12" from="-375714879" to="290538999" fromTaz="fringe-X18Y26" toTaz="destination-X19Y25" departLane="free" departSpeed="max"/>
    <trip id="hour_13_2804" depart="46811.42" from="24821181" to="290538999" fromTaz="origin-X4Y30" toTaz="destination-X19Y25" departLane="free" departSpeed="max"/>
    <trip id="hour_13_666" depart="46812.32" from="12968189#1" to="307024526" fromTaz="fringe-X20Y7" toTaz="fringe-X23Y15" departLane="free" departSpeed="max"/>
    <trip id="hour_13_2432" depart="46812.48" from="185260338" to="275056710" fromTaz="origin-X20Y25" toTaz="destination-X4Y30" departLane="free" departSpeed="max"/>
    <trip id="hour_13_1545" depart="46812.61" from="11939538356" to="290538999" fromTaz="grid-X20Y9" toTaz="destination-X19Y25" departLane="free" departSpeed="max"/>
    <trip id="hour_13_2512" depart="46812.68" from="24821181" to="290538999" fromTaz="origin-X4Y30" toTaz="destination-X19Y25" departLane="free" departSpeed="max"/>
    <trip id="hour_13_298" depart="46812.93" from="375714879" to="143075776" fromTaz="fringe-X18Y26" toTaz="fringe-X20Y21" departLane="free" departSpeed="max"/>
    <trip id="hour_13_2583" depart="46813.10" from="24821181" to="290538999" fromTaz="origin-X4Y30" toTaz="destination-X19Y25" departLane="free" departSpeed="max"/>
    <trip id="hour_13_1784" depart="46813.61" from="-507812465" to="164785144" fromTaz="grid-X2Y13" toTaz="fringe-X11Y4" departLane="free" departSpeed="max"/>
    <trip id="hour_13_1822" depart="46814.43" from="-11939543231" to="275056710" fromTaz="grid-X3Y26" toTaz="destination-X4Y30" departLane="free" departSpeed="max"/>
    <trip id="hour_13_1045" depart="46814.59" from="-37850228" to="451730154" fromTaz="fringe-X7Y0" toTaz="grid-X12Y4" departLane="free" departSpeed="max"/>
    <trip id="hour_13_1833" depart="46814.71" from="11939537337" to="275056710" fromTaz="grid-X3Y26" toTaz="destination-X4Y30" departLane="free" departSpeed="max"/>
    <trip id="hour_13_1234" depart="46814.93" from="-314146374" to="275056710" fromTaz="grid-X11Y26" toTaz="destination-X4Y30" departLane="free" departSpeed="max"/>
    <trip id="hour_13_2012" depart="46815.00" from="42484299" to="275056710" fromTaz="grid-X6Y15" toTaz="destination-X4Y30" departLane="free" departSpeed="max"/>
    <trip id="hour_13_1473" depart="46815.11" from="-126915401" to="275056710" fromTaz="grid-X1Y23" toTaz="destination-X4Y30" departLane="free" departSpeed="max"/>
    <trip id="hour_13_2419" depart="46815.14" from="185260338" to="275056710" fromTaz="origin-X20Y25" toTaz="destination-X4Y30" departLane="free" departSpeed="max"/>
    <trip id="hour_13_1595" depart="46815.17" from="-122715732" to="37850228" fromTaz="grid-X21Y11" toTaz="fringe-X7Y0" departLane="free" departSpeed="max"/>
    <trip id="hour_13_1001" depart="46815.27" from="40425140" to="-11939539977" fromTaz="fringe-X4Y29" toTaz="grid-X1Y23" departLane="free" departSpeed="max"/>
    <trip id="hour_13_775" depart="46815.70" from="24793256" to="290538999" fromTaz="fringe-X23Y16" toTaz="destination-X19Y25" departLane="free" departSpeed="max"/>
    <trip id="hour_13_116" depart="46815.72" from="150270054" to="-52045883" fromTaz="fringe-X16Y26" toTaz="fringe-X10Y1" departLane="free" departSpeed="max"/>
    <trip id="hour_13_2315" depart="46815.90" from="185260338" to="275056710" fromTaz="origin-X20Y25" toTaz="destination-X4Y30" departLane="free" departSpeed="max"/>
    <trip id="hour_13_2667" depart="46816.66" from="24821181" to="290538999" fromTaz="origin-X4Y30" toTaz="destination-X19Y25" departLane="free" departSpeed="max"/>
    <trip id="hour_13_863" depart="46817.13" from="24793256" to="364433362" fromTaz="fringe-X23Y16" toTaz="grid-X19Y7" departLane="free" departSpeed="max"/>
    <trip id="hour_13_96" depart="46817.50" from="11939526419" to="275056710" fromTaz="fringe-X16Y26" toTaz="destination-X4Y30" departLane="free" departSpeed="max"/>
    <trip id="hour_13_460" depart="46817.68" from="326780461" to="307023793" fromTaz="fringe-X19Y22" toTaz="fringe-X23Y15" departLane="free" departSpeed="max"/>
    <trip id="hour_13_26" depart="46818.13" from="-52045883" to="11939548477" fromTaz="fringe-X10Y1" toTaz="grid-X15Y5" departLane="free" departSpeed="max"/>
    <trip id="hour_13_10" depart="46818.39" from="52045883" to="452051334" fromTaz="fringe-X10Y1" toTaz="destination-X7Y1" departLane="free" departSpeed="max"/>
    <trip id="hour_13_204" depart="46818.68" from="11939526419" to="8896380" fromTaz="fringe-X16Y26" toTaz="fringe-X23Y15" departLane="free" departSpeed="max"/>
    <trip id="hour_13_1374" depart="46819.49" from="396808035" to="290538999" fromTaz="grid-X17Y6" toTaz="destination-X19Y25" departLane="free" departSpeed="max"/>
    <trip id="hour_13_386" depart="46819.61" from="57373256" to="307024526" fromTaz="fringe-X18Y9" toTaz="fringe-X23Y15" departLane="free" departSpeed="max"/>
    <trip id="hour_13_1065" depart="46819.64" from="5213455" to="275056710" fromTaz="fringe-X7Y28" toTaz="destination-X4Y30" departLane="free" departSpeed="max"/>
    <trip id="hour_13_1752" depart="46819.64" from="-11939526842" to="-12968189#1" fromTaz="grid-X23Y16" toTaz="fringe-X20Y7" departLane="free" departSpeed="max"/>
    <trip id="hour_13_1787" depart="46819.71" from="40192684" to="452051334" fromTaz="grid-X2Y14" toTaz="destination-X7Y1" departLane="free" departSpeed="max"/>
    <trip id="hour_13_2288" depart="46819.73" from="185260338" to="275056710" fromTaz="origin-X20Y25" toTaz="destination-X4Y30" departLane="free" departSpeed="max"/>
    <trip id="hour_13_462" depart="46819.74" from="326780459" to="8896380" fromTaz="fringe-X19Y22" toTaz="fringe-X23Y15" departLane="free" departSpeed="max"/>
    <trip id="hour_13_2233" depart="46819.83" from="185260338" to="275056710" fromTaz="origin-X20Y25" toTaz="destination-X4Y30" departLane="free" departSpeed="max"/>
    <trip id="hour_13_2887" depart="46820.04" from="24821181" to="290538999" fromTaz="origin-X4Y30" toTaz="destination-X19Y25" departLane="free" departSpeed="max"/>
    <trip id="hour_13_1913" depart="46820.09" from="11939528874" to="275056710" fromTaz="grid-X4Y28" toTaz="destination-X4Y30" departLane="free" departSpeed="max"/>
    <trip id="hour_13_2437" depart="46820.18" from="185260338" to="275056710" fromTaz="origin-X20Y25" toTaz="destination-X4Y30" departLane="free" departSpeed="max"/>
    <trip id="hour_13_2144" depart="46820.25" from="110826586" to="275056710" fromTaz="grid-X9Y22" toTaz="destination-X4Y30" departLane="free" departSpeed="max"/>
    <trip id="hour_13_2260" depart="46820.36" from="185260338" to="275056710" fromTaz="origin-X20Y25" toTaz="destination-X4Y30" departLane="free" departSpeed="max"/>
    <trip id="hour_13_695" depart="46820.47" from="12968189#1" to="-133951992" fromTaz="fringe-X20Y7" toTaz="grid-X21Y11" departLane="free" departSpeed="max"/>
    <trip id="hour_13_2098" depart="46821.40" from="154875043" to="307024526" fromTaz="grid-X7Y3" toTaz="fringe-X23Y15" departLane="free" departSpeed="max"/>
    <trip id="hour_13_2571" depart="46821.41" from="24821181" to="290538999" fromTaz="origin-X4Y30" toTaz="destination-X19Y25" departLane="free" departSpeed="max"/>
    <trip id="hour_13_2939" depart="46821.44" from="24821181" to="-110826572" fromTaz="origin-X4Y30" toTaz="grid-X9Y22" departLane="free" departSpeed="max"/>
    <trip id="hour_13_1020" depart="46822.28" from="37850228" to="52045883" fromTaz="fringe-X7Y0" toTaz="fringe-X10Y1" departLane="free" departSpeed="max"/>
    <trip id="hour_13_2808" depart="46822.69" from="24821181" to="290538999" fromTaz="origin-X4Y30" toTaz="destination-X19Y25" departLane="free" departSpeed="max"/>
    <trip id="hour_13_1294" depart="46822.82" from="-11939531752" to="52045883" fromTaz="grid-X14Y5" toTaz="fringe-X10Y1" departLane="free" departSpeed="max"/>
    <trip id="hour_13_772" depart="46823.51" from="24793256" to="290538999" fromTaz="fringe-X23Y16" toTaz="destination-X19Y25" departLane="free" departSpeed="max"/>
    <trip id="hour_13_602" depart="46823.70" from="143075780" to="326594940" fromTaz="fringe-X20Y21" toTaz="fringe-X16Y26" departLane="free" departSpeed="max"/>
    <trip id="hour_13_2960" depart="46823.83" from="452051337" to="158346014" fromTaz="origin-X7Y1" toTaz="fringe-X19Y10" departLane="free" departSpeed="max"/>
    <trip id="hour_13_586" depart="46824.98" from="-143075776" to="275056710" fromTaz="fringe-X20Y21" toTaz="destination-X4Y30" departLane="free" departSpeed="max"/>
    <trip id="hour_13_19" depart="46825.67" from="-52045883" to="11939528418" fromTaz="fringe-X10Y1" toTaz="grid-X10Y2" departLane="free" departSpeed="max"/>
    <trip id="hour_13_809" depart="46826.00" from="-24793256" to="-375714879" fromTaz="fringe-X23Y16" toTaz="fringe-X18Y26" departLane="free" departSpeed="max"/>
    <trip id="hour_13_1477" depart="46826.38" from="11939547462" to="290538999" fromTaz="grid-X20Y10" toTaz="destination-X19Y25" departLane="free" departSpeed="max"/>
    <trip id="hour_13_54" depart="46827.48" from="164785142" to="452051334" fromTaz="fringe-X11Y4" toTaz="destination-X7Y1" departLane="free" departSpeed="max"/>
    <trip id="hour_13_3015" depart="46827.56" from="452051337" to="-11939536217" fromTaz="origin-X7Y1" toTaz="grid-X20Y9" departLane="free" departSpeed="max"/>
    <trip id="hour_13_2610" depart="46827.65" from="24821181" to="290538999" fromTaz="origin-X4Y30" toTaz="destination-X19Y25" departLane="free" departSpeed="max"/>
    <trip id="hour_13_1825" depart="46828.77" from="-11939537337" to="275056710" fromTaz="grid-X3Y26" toTaz="destination-X4Y30" departLane="free" departSpeed="max"/>
    <trip id="hour_13_1214" depart="46828.78" from="-11939533558" to="275056710" fromTaz="grid-X11Y20" toTaz="destination-X4Y30" departLane="free" departSpeed="max"/>
    <trip id="hour_13_1919" depart="46829.15" from="-934948741" to="452051334" fromTaz="grid-X5Y14" toTaz="destination-X7Y1" departLane="free" departSpeed="max"/>
    <trip id="hour_13_1139" depart="46829.17" from="326572941" to="-11939546858" fromTaz="fringe-X7Y28" toTaz="grid-X11Y19" departLane="free" departSpeed="max"/>
    <trip id="hour_13_1081" depart="46829.50" from="929240359" to="275056710" fromTaz="fringe-X7Y28" toTaz="destination-X4Y30" departLane="free" departSpeed="max"/>
    <trip id="hour_13_2112" depart="46829.78" from="11939530890" to="307024527" fromTaz="grid-X8Y2" toTaz="fringe-X23Y15" departLane="free" departSpeed="max"/>
    <trip id="hour_13_2249" depart="46829.99" from="185260338" to="275056710" fromTaz="origin-X20Y25" toTaz="destination-X4Y30" departLane="free" departSpeed="max"/>
    <trip id="hour_13_2980" depart="46830.05" from="452051337" to="307023793" fromTaz="origin-X7Y1" toTaz="fringe-X23Y15" departLane="free" departSpeed="max"/>
    <trip id="hour_13_2694" depart="46830.10" from="24821181" to="290538999" fromTaz="origin-X4Y30" toTaz="destination-X19Y25" departLane="free" departSpeed="max"/>
    <trip id="hour_13_2725" depart="46830.18" from="24821181" to="290538999" fromTaz="origin-X4Y30" toTaz="destination-X19Y25" departLane="free" departSpeed="max"/>
    <trip id="hour_13_1855" depart="46830.21" from="11939539921" to="275056710" fromTaz="grid-X3Y28" toTaz="destination-X4Y30" departLane="free" departSpeed="max"/>
    <trip id="hour_13_1809" depart="46830.26" from="-11939538400" to="452051334" fromTaz="grid-X3Y11" toTaz="destination-X7Y1" departLane="free" departSpeed="max"/>
    <trip id="hour_13_2666" depart="46830.87" from="24821181" to="290538999" fromTaz="origin-X4Y30" toTaz="destination-X19Y25" departLane="free" departSpeed="max"/>
    <trip id="hour_13_494" depart="46830.89" from="-10666718" to="275056710" fromTaz="fringe-X19Y23" toTaz="destination-X4Y30" departLane="free" departSpeed="max"/>
    <trip id="hour_13_2207" depart="46830.97" from="185260338" to="275056710" fromTaz="origin-X20Y25" toTaz="destination-X4Y30" departLane="free" departSpeed="max"/>
    <trip id="hour_13_2041" depart="46831.05" from="-11939529608" to="-143075776" fromTaz="grid-X6Y21" toTaz="fringe-X20Y21" departLane="free" departSpeed="max"/>
    <trip id="hour_13_2609" depart="46831.13" from="24821181" to="290538999" fromTaz="origin-X4Y30" toTaz="destination-X19Y25" departLane="free" departSpeed="max"/>
    <trip id="hour_13_538" depart="46831.44" from="-958174516" to="275056710" fromTaz="fringe-X1Y23" toTaz="destination-X4Y30" departLane="free" departSpeed="max"/>
    <trip id="hour_13_235" depart="46831.69" from="375714879" to="452051334" fromTaz="fringe-X18Y26" toTaz="destination-X7Y1" departLane="free" departSpeed="max"/>
    <trip id="hour_13_1951" depart="46831.76" from="11939535983" to="275056710" fromTaz="grid-X5Y25" toTaz="destination-X4Y30" departLane="free" departSpeed="max"/>
    <trip id="hour_13_2638" depart="46831.88" from="24821181" to="290538999" fromTaz="origin-X4Y30" toTaz="destination-X19Y25" departLane="free" departSpeed="max"/>
    <trip id="hour_13_1284" depart="46832.14" from="451730193" to="307024527" fromTaz="grid-X13Y5" toTaz="fringe-X23Y15" departLane="free" departSpeed="max"/>
    <trip id="hour_13_965" depart="46832.26" from="-40425140" to="275056710" fromTaz="fringe-X4Y29" toTaz="destination-X4Y30" departLane="free" departSpeed="max"/>
    <trip id="hour_13_1889" depart="46832.43" from="-453325907" to="654765962" fromTaz="grid-X4Y26" toTaz="fringe-X16Y17" departLane="free" departSpeed="max"/>
    <trip id="hour_13_2780" depart="46832.76" from="24821181" to="290538999" fromTaz="origin-X4Y30" toTaz="destination-X19Y25" departLane="free" departSpeed="max"/>
    <trip id="hour_13_2122" depart="46833.27" from="987011928" to="452051334" fromTaz="grid-X8Y3" toTaz="destination-X7Y1" departLane="free" departSpeed="max"/>
    <trip id="hour_13_634" depart="46833.54" from="4725334" to="-143075780" fromTaz="fringe-X20Y25" toTaz="fringe-X20Y21" departLane="free" departSpeed="max"/>
    <trip id="hour_13_1823" depart="46833.79" from="-1148118307" to="275056710" fromTaz="grid-X3Y26" toTaz="destination-X4Y30" departLane="free" departSpeed="max"/>
    <trip id="hour_13_472" depart="46833.79" from="10666718" to="290538999" fromTaz="fringe-X19Y23" toTaz="destination-X19Y25" departLane="free" departSpeed="max"/>
    <trip id="hour_13_1788" depart="46834.90" from="40192684" to="654765962" fromTaz="grid-X2Y14" toTaz="fringe-X16Y17" departLane="free" departSpeed="max"/>
    <trip id="hour_13_1596" depart="46835.18" from="-133951992" to="37850228" fromTaz="grid-X21Y11" toTaz="fringe-X7Y0" departLane="free" departSpeed="max"/>
    <trip id="hour_13_1935" depart="46835.58" from="-11939548886" to="-654765962" fromTaz="grid-X5Y21" toTaz="fringe-X16Y17" departLane="free" departSpeed="max"/>
    <trip id="hour_13_642" depart="46835.85" from="12968189#1" to="452051334" fromTaz="fringe-X20Y7" toTaz="destination-X7Y1" departLane="free" departSpeed="max"/>
    <trip id="hour_13_2758" depart="46835.90" from="24821181" to="290538999" fromTaz="origin-X4Y30" toTaz="destination-X19Y25" departLane="free" departSpeed="max"/>
    <trip id="hour_13_1201" depart="46836.35" from="11939544126" to="275056710" fromTaz="grid-X10Y25" toTaz="destination-X4Y30" departLane="free" departSpeed="max"/>
    <trip id="hour_13_1270" depart="46836.58" from="-290456883" to="275056710" fromTaz="grid-X12Y26" toTaz="destination-X4Y30" departLane="free" departSpeed="max"/>
    <trip id="hour_13_1532" depart="46836.70" from="-400567504" to="-52045883" fromTaz="grid-X20Y7" toTaz="fringe-X10Y1" departLane="free" departSpeed="max"/>
    <trip id="hour_13_2220" depart="46837.00" from="185260338" to="275056710" fromTaz="origin-X20Y25" toTaz="destination-X4Y30" departLane="free" departSpeed="max"/>
    <trip id="hour_13_284" depart="46837.11" from="375714879" to="-143075776" fromTaz="fringe-X18Y26" toTaz="fringe-X20Y21" departLane="free" departSpeed="max"/>
    <trip id="hour_13_1733" depart="46837.17" from="-63961527" to="307024527" fromTaz="grid-X23Y14" toTaz="fringe-X23Y15" departLane="free" departSpeed="max"/>
    <trip id="hour_13_1330" depart="46837.22" from="247882785" to="290538999" fromTaz="grid-X15Y6" toTaz="destination-X19Y25" departLane="free" departSpeed="max"/>
    <trip id="hour_13_2134" depart="46837.22" from="-8049636" to="452051334" fromTaz="grid-X9Y2" toTaz="destination-X7Y1" departLane="free" departSpeed="max"/>
    <trip id="hour_13_760" depart="46837.58" from="479358807" to="307024527" fromTaz="fringe-X22Y14" toTaz="fringe-X23Y15" departLane="free" departSpeed="max"/>
    <trip id="hour_13_493" depart="46837.70" from="326780462" to="275056710" fromTaz="fringe-X19Y23" toTaz="destination-X4Y30" departLane="free" departSpeed="max"/>
    <trip id="hour_13_2761" depart="46837.87" from="24821181" to="290538999" fromTaz="origin-X4Y30" toTaz="destination-X19Y25" departLane="free" departSpeed="max"/>
    <trip id="hour_13_2826" depart="46837.96" from="24821181" to="290538999" fromTaz="origin-X4Y30" toTaz="destination-X19Y25" departLane="free" departSpeed="max"/>
    <trip id="hour_13_1278" depart="46838.17" from="-247882786" to="452051334" fromTaz="grid-X13Y5" toTaz="destination-X7Y1" departLane="free" departSpeed="max"/>
    <trip id="hour_13_1973" depart="46838.94" from="202156414" to="275056710" fromTaz="grid-X5Y28" toTaz="destination-X4Y30" departLane="free" departSpeed="max"/>
    <trip id="hour_13_291" depart="46839.02" from="-375714879" to="143075780" fromTaz="fringe-X18Y26" toTaz="fringe-X20Y21" departLane="free" departSpeed="max"/>
    <trip id="hour_13_979" depart="46839.29" from="40425140" to="275056710" fromTaz="fringe-X4Y29" toTaz="destination-X4Y30" departLane="free" departSpeed="max"/>
    <trip id="hour_13_1611" depart="46839.36" from="-158415224" to="52045883" fromTaz="grid-X21Y12" toTaz="fringe-X10Y1" departLane="free" departSpeed="max"/>
    <trip id="hour_13_259" depart="46839.43" from="-375714879" to="87194342" fromTaz="fringe-X18Y26" toTaz="fringe-X11Y4" departLane="free" departSpeed="max"/>
    <trip id="hour_13_188" depart="46839.70" from="150270059" to="307024527" fromTaz="fringe-X16Y26" toTaz="fringe-X23Y15" departLane="free" departSpeed="max"/>
    <trip id="hour_13_59" depart="46840.24" from="164785144" to="-52045883" fromTaz="fringe-X11Y4" toTaz="fringe-X10Y1" departLane="free" departSpeed="max"/>
    <trip id="hour_13_562" depart="46840.26" from="958174516" to="1148118307" fromTaz="fringe-X1Y23" toTaz="grid-X3Y26" departLane="free" departSpeed="max"/>
    <trip id="hour_13_1340" depart="46841.06" from="231309156" to="4414008" fromTaz="grid-X15Y6" toTaz="fringe-X19Y10" departLane="free" departSpeed="max"/>
    <trip id="hour_13_344" depart="46841.59" from="375714879" to="8896380" fromTaz="fringe-X18Y26" toTaz="fringe-X23Y15" departLane="free" departSpeed="max"/>
    <trip id="hour_13_1188" depart="46841.66" from="-11939531321" to="275056710" fromTaz="grid-X10Y24" toTaz="destination-X4Y30" departLane="free" departSpeed="max"/>
    <trip id="hour_13_1852" depart="46841.83" from="11939529884" to="275056710" fromTaz="grid-X3Y27" toTaz="destination-X4Y30" departLane="free" departSpeed="max"/>
    <trip id="hour_13_2949" depart="46842.49" from="452051337" to="87194347" fromTaz="origin-X7Y1" toTaz="fringe-X11Y4" departLane="free" departSpeed="max"/>
    <trip id="hour_13_1119" depart="46843.33" from="929240359" to="-654765962" fromTaz="fringe-X7Y28" toTaz="fringe-X16Y17" departLane="free" departSpeed="max"/>
    <trip id="hour_13_1335" depart="46843.74" from="231309154" to="87194347" fromTaz="grid-X15Y6" toTaz="fringe-X11Y4" departLane="free" departSpeed="max"/>
    <trip id="hour_13_319" depart="46843.83" from="-375714879" to="-12968189#1" fromTaz="fringe-X18Y26" toTaz="fringe-X20Y7" departLane="free" departSpeed="max"/>
    <trip id="hour_13_2082" depart="46844.26" from="71736668" to="12968189#1" fromTaz="grid-X7Y2" toTaz="fringe-X20Y7" departLane="free" departSpeed="max"/>
    <trip id="hour_13_667" depart="46844.26" from="-12968189#1" to="8896380" fromTaz="fringe-X20Y7" toTaz="fringe-X23Y15" departLane="free" departSpeed="max"/>
    <trip id="hour_13_1311" depart="46844.99" from="11939548477" to="290538999" fromTaz="grid-X15Y5" toTaz="destination-X19Y25" departLane="free" departSpeed="max"/>
    <trip id="hour_13_2532" depart="46845.59" from="24821181" to="290538999" fromTaz="origin-X4Y30" toTaz="destination-X19Y25" departLane="free" departSpeed="max"/>
    <trip id="hour_13_465" depart="46846.25" from="326780461" to="-134105523" fromTaz="fringe-X19Y22" toTaz="fringe-X24Y16" departLane="free" departSpeed="max"/>
    <trip id="hour_13_2279" depart="46846.26" from="185260338" to="275056710" fromTaz="origin-X20Y25" toTaz="destination-X4Y30" departLane="free" departSpeed="max"/>
    <trip id="hour_13_1759" depart="46846.55" from="22290943" to="307024527" fromTaz="grid-X23Y16" toTaz="fringe-X23Y15" departLane="free" departSpeed="max"/>
    <trip id="hour_13_2351" depart="46846.79" from="185260338" to="275056710" fromTaz="origin-X20Y25" toTaz="destination-X4Y30" departLane="free" departSpeed="max"/>
    <trip id="hour_13_2756" depart="46846.82" from="24821181" to="290538999" fromTaz="origin-X4Y30" toTaz="destination-X19Y25" departLane="free" departSpeed="max"/>
    <trip id="hour_13_1027" depart="46846.85" from="37850228" to="307024526" fromTaz="fringe-X7Y0" toTaz="fringe-X23Y15" departLane="free" departSpeed="max"/>
    <trip id="hour_13_82" depart="46847.01" from="87194347" to="543379923" fromTaz="fringe-X11Y4" toTaz="grid-X9Y2" departLane="free" departSpeed="max"/>
    <trip id="hour_13_728" depart="46847.16" from="479358807" to="275056710" fromTaz="fringe-X22Y14" toTaz="destination-X4Y30" departLane="free" departSpeed="max"/>
    <trip id="hour_13_2652" depart="46847.65" from="24821181" to="290538999" fromTaz="origin-X4Y30" toTaz="destination-X19Y25" departLane="free" departSpeed="max"/>
    <trip id="hour_13_886" depart="46847.81" from="-134105523" to="275056710" fromTaz="fringe-X24Y16" toTaz="destination-X4Y30" departLane="free" departSpeed="max"/>
    <trip id="hour_13_361" depart="46848.32" from="375714879" to="134105523" fromTaz="fringe-X18Y26" toTaz="fringe-X24Y16" departLane="free" departSpeed="max"/>
    <trip id="hour_13_1354" depart="46848.50" from="11939547107" to="452051334" fromTaz="grid-X16Y6" toTaz="destination-X7Y1" departLane="free" departSpeed="max"/>
    <trip id="hour_13_2216" depart="46848.60" from="185260338" to="275056710" fromTaz="origin-X20Y25" toTaz="destination-X4Y30" departLane="free" departSpeed="max"/>
    <trip id="hour_13_548" depart="46848.84" from="-958174516" to="275056710" fromTaz="fringe-X1Y23" toTaz="destination-X4Y30" departLane="free" departSpeed="max"/>
    <trip id="hour_13_651" depart="46849.01" from="-12968189#1" to="57373256" fromTaz="fringe-X20Y7" toTaz="fringe-X18Y9" departLane="free" departSpeed="max"/>
    <trip id="hour_13_2150" depart="46849.06" from="-50472477" to="275056710" fromTaz="grid-X9Y23" toTaz="destination-X4Y30" departLane="free" departSpeed="max"/>
    <trip id="hour_13_2656" depart="46849.53" from="24821181" to="290538999" fromTaz="origin-X4Y30" toTaz="destination-X19Y25" departLane="free" departSpeed="max"/>
    <trip id="hour_13_2624" depart="46849.86" from="24821181" to="290538999" fromTaz="origin-X4Y30" toTaz="destination-X19Y25" departLane="free" departSpeed="max"/>
    <trip id="hour_13_1866" depart="46849.93" from="-11939545746" to="275056710" fromTaz="grid-X3Y28" toTaz="destination-X4Y30" departLane="free" departSpeed="max"/>
    <trip id="hour_13_2541" depart="46850.01" from="24821181" to="290538999" fromTaz="origin-X4Y30" toTaz="destination-X19Y25" departLane="free" departSpeed="max"/>
    <trip id="hour_13_1300" depart="46850.13" from="-451730194" to="307024526" fromTaz="grid-X14Y5" toTaz="fringe-X23Y15" departLane="free" departSpeed="max"/>
    <trip id="hour_13_1708" depart="46850.24" from="11939525710" to="-52045883" fromTaz="grid-X22Y14" toTaz="fringe-X10Y1" departLane="free" departSpeed="max"/>
    <trip id="hour_13_796" depart="46850.32" from="-24793256" to="452051334" fromTaz="fringe-X23Y16" toTaz="destination-X7Y1" departLane="free" departSpeed="max"/>
    <trip id="hour_13_1336" depart="46850.44" from="-396807590" to="-375714879" fromTaz="grid-X15Y6" toTaz="fringe-X18Y26" departLane="free" departSpeed="max"/>
    <trip id="hour_13_2376" depart="46851.15" from="185260338" to="275056710" fromTaz="origin-X20Y25" toTaz="destination-X4Y30" departLane="free" departSpeed="max"/>
    <trip id="hour_13_1337" depart="46851.33" from="247882785" to="375714879" fromTaz="grid-X15Y6" toTaz="fringe-X18Y26" departLane="free" departSpeed="max"/>
    <trip id="hour_13_1411" depart="46851.87" from="56469031" to="375714879" fromTaz="grid-X17Y7" toTaz="fringe-X18Y26" departLane="free" departSpeed="max"/>
    <trip id="hour_13_896" depart="46851.97" from="134105523" to="326594940" fromTaz="fringe-X24Y16" toTaz="fringe-X16Y26" departLane="free" departSpeed="max"/>
    <trip id="hour_13_2883" depart="46852.03" from="24821181" to="290538999" fromTaz="origin-X4Y30" toTaz="destination-X19Y25" departLane="free" departSpeed="max"/>
    <trip id="hour_13_619" depart="46852.35" from="143075780" to="375714879" fromTaz="fringe-X20Y21" toTaz="fringe-X18Y26" departLane="free" departSpeed="max"/>
    <trip id="hour_13_1373" depart="46852.37" from="451704773" to="-37850228" fromTaz="grid-X16Y6" toTaz="fringe-X7Y0" departLane="free" departSpeed="max"/>