<?xml version="1.0" encoding="UTF-8"?>

<routes xmlns:xsi="http://www.w3.org/2001/XMLSchema-instance" xsi:noNamespaceSchemaLocation="http://sumo.dlr.de/xsd/routes_file.xsd">
    <trip id="hour_14_1996" depart="50400.75" from="-130419319" to="290538999" fromTaz="grid-X6Y20" toTaz="destination-X19Y25" departLane="free" departSpeed="max"/>
    <trip id="hour_14_2442" depart="50400.90" from="185260338" to="275056710" fromTaz="origin-X20Y25" toTaz="destination-X4Y30" departLane="free" departSpeed="max"/>
    <trip id="hour_14_143" depart="50401.15" from="164785144" to="-40192684" fromTaz="fringe-X11Y4" toTaz="grid-X2Y14" departLane="free" departSpeed="max"/>
    <trip id="hour_14_845" depart="50401.28" from="24793256" to="12968189#1" fromTaz="fringe-X23Y16" toTaz="fringe-X20Y7" departLane="free" departSpeed="max"/>
    <trip id="hour_14_1710" depart="50401.55" from="158414578" to="-237582244" fromTaz="grid-X21Y12" toTaz="fringe-X1Y12" departLane="free" departSpeed="max"/>
    <trip id="hour_14_1328" depart="50401.85" from="11939547093" to="275056710" fromTaz="grid-X11Y20" toTaz="destination-X4Y30" departLane="free" departSpeed="max"/>
    <trip id="hour_14_1020" depart="50402.92" from="5213455" to="143075780" fromTaz="fringe-X7Y28" toTaz="fringe-X20Y21" departLane="free" departSpeed="max"/>
    <trip id="hour_14_664" depart="50403.14" from="143075780" to="375714879" fromTaz="fringe-X20Y21" toTaz="fringe-X18Y26" departLane="free" departSpeed="max"/>
    <trip id="hour_14_2272" depart="50403.46" from="185260338" to="275056710" fromTaz="origin-X20Y25" toTaz="destination-X4Y30" departLane="free" departSpeed="max"/>
    <trip id="hour_14_889" depart="50403.87" from="-134105523" to="158346347" fromTaz="fringe-X24Y16" toTaz="fringe-X19Y10" departLane="free" departSpeed="max"/>
    <trip id="hour_14_1545" depart="50404.33" from="-11939531295" to="-375714879" fromTaz="grid-X17Y7" toTaz="fringe-X18Y26" departLane="free" departSpeed="max"/>
    <trip id="hour_14_1374" depart="50404.55" from="11939549118" to="275056710" fromTaz="grid-X12Y26" toTaz="destination-X4Y30" departLane="free" departSpeed="max"/>
    <trip id="hour_14_791" depart="50405.00" from="-121921459" to="-400567504" fromTaz="fringe-X22Y11" toTaz="grid-X20Y7" departLane="free" departSpeed="max"/>
    <trip id="hour_14_2505" depart="50405.67" from="185260338" to="275056710" fromTaz="origin-X20Y25" toTaz="destination-X4Y30" departLane="free" departSpeed="max"/>
    <trip id="hour_14_2398" depart="50406.09" from="185260338" to="275056710" fromTaz="origin-X20Y25" toTaz="destination-X4Y30" departLane="free" departSpeed="max"/>
    <trip id="hour_14_283" depart="50406.14" from="237130850" to="12968189#1" fromTaz="fringe-X16Y26" toTaz="fringe-X20Y7" departLane="free" departSpeed="max"/>
    <trip id="hour_14_60" depart="50406.36" from="164785142" to="452051334" fromTaz="fringe-X11Y4" toTaz="destination-X7Y1" departLane="free" departSpeed="max"/>
    <trip id="hour_14_1980" depart="50406.40" from="-105136082" to="-237582244" fromTaz="grid-X5Y8" toTaz="fringe-X1Y12" departLane="free" departSpeed="max"/>
    <trip id="hour_14_462" depart="50406.97" from="326780461" to="307024527" fromTaz="fringe-X19Y22" toTaz="fringe-X23Y15" departLane="free" departSpeed="max"/>
    <trip id="hour_14_2408" depart="50407.37" from="185260338" to="275056710" fromTaz="origin-X20Y25" toTaz="destination-X4Y30" departLane="free" departSpeed="max"/>
    <trip id="hour_14_42" depart="50407.38" from="87194342" to="452051334" fromTaz="fringe-X11Y4" toTaz="destination-X7Y1" departLane="free" departSpeed="max"/>
    <trip id="hour_14_2627" depart="50407.43" from="185260338" to="307024527" fromTaz="origin-X20Y25" toTaz="fringe-X23Y15" departLane="free" departSpeed="max"/>
    <trip id="hour_14_543" depart="50408.32" from="-10666718" to="275056710" fromTaz="fringe-X19Y23" toTaz="destination-X4Y30" departLane="free" departSpeed="max"/>
    <trip id="hour_14_296" depart="50408.55" from="11939526419" to="307024527" fromTaz="fringe-X16Y26" toTaz="fringe-X23Y15" departLane="free" departSpeed="max"/>
    <trip id="hour_14_1872" depart="50409.92" from="11939524174" to="958174516" fromTaz="grid-X4Y28" toTaz="fringe-X1Y23" departLane="free" departSpeed="max"/>
    <trip id="hour_14_2755" depart="50411.42" from="24821181" to="290538999" fromTaz="origin-X4Y30" toTaz="destination-X19Y25" departLane="free" departSpeed="max"/>
    <trip id="hour_14_2979" depart="50411.63" from="452051337" to="158346347" fromTaz="origin-X7Y1" toTaz="fringe-X19Y10" departLane="free" departSpeed="max"/>
    <trip id="hour_14_648" depart="50412.32" from="-143075776" to="237130850" fromTaz="fringe-X20Y21" toTaz="fringe-X16Y26" departLane="free" departSpeed="max"/>
    <trip id="hour_14_2385" depart="50412.48" from="185260338" to="275056710" fromTaz="origin-X20Y25" toTaz="destination-X4Y30" departLane="free" departSpeed="max"/>
    <trip id="hour_14_2467" depart="50412.68" from="185260338" to="275056710" fromTaz="origin-X20Y25" toTaz="destination-X4Y30" departLane="free" departSpeed="max"/>
    <trip id="hour_14_2538" depart="50413.10" from="185260338" to="275056710" fromTaz="origin-X20Y25" toTaz="destination-X4Y30" departLane="free" departSpeed="max"/>
    <trip id="hour_14_1749" depart="50413.23" from="11939525710" to="8896380" fromTaz="grid-X22Y14" toTaz="fringe-X23Y15" departLane="free" departSpeed="max"/>
    <trip id="hour_14_1672" depart="50413.26" from="171019100" to="12968189#1" fromTaz="grid-X21Y11" toTaz="fringe-X20Y7" departLane="free" departSpeed="max"/>
    <trip id="hour_14_66" depart="50413.56" from="164785142" to="452051334" fromTaz="fringe-X11Y4" toTaz="destination-X7Y1" departLane="free" departSpeed="max"/>
    <trip id="hour_14_1532" depart="50413.78" from="165378136" to="452051334" fromTaz="grid-X17Y7" toTaz="destination-X7Y1" departLane="free" departSpeed="max"/>
    <trip id="hour_14_1761" depart="50414.30" from="-558308957" to="452051334" fromTaz="grid-X23Y16" toTaz="destination-X7Y1" departLane="free" departSpeed="max"/>
    <trip id="hour_14_1950" depart="50414.41" from="734247285" to="275056710" fromTaz="grid-X5Y27" toTaz="destination-X4Y30" departLane="free" departSpeed="max"/>
    <trip id="hour_14_3065" depart="50414.64" from="452051337" to="711108807" fromTaz="origin-X7Y1" toTaz="grid-X6Y17" departLane="free" departSpeed="max"/>
    <trip id="hour_14_1814" depart="50414.71" from="11939537337" to="275056710" fromTaz="grid-X3Y26" toTaz="destination-X4Y30" departLane="free" departSpeed="max"/>
    <trip id="hour_14_1454" depart="50415.11" from="-247882785" to="452051334" fromTaz="grid-X15Y6" toTaz="destination-X7Y1" departLane="free" departSpeed="max"/>
    <trip id="hour_14_2372" depart="50415.14" from="185260338" to="275056710" fromTaz="origin-X20Y25" toTaz="destination-X4Y30" departLane="free" departSpeed="max"/>
    <trip id="hour_14_1576" depart="50415.17" from="-182039270" to="452051334" fromTaz="grid-X19Y8" toTaz="destination-X7Y1" departLane="free" departSpeed="max"/>
    <trip id="hour_14_976" depart="50415.27" from="929240359" to="275056710" fromTaz="fringe-X7Y28" toTaz="destination-X4Y30" departLane="free" departSpeed="max"/>
    <trip id="hour_14_3000" depart="50415.54" from="452051337" to="479358807" fromTaz="origin-X7Y1" toTaz="fringe-X22Y14" departLane="free" departSpeed="max"/>
    <trip id="hour_14_1840" depart="50415.58" from="-11939545746" to="958174516" fromTaz="grid-X3Y28" toTaz="fringe-X1Y23" departLane="free" departSpeed="max"/>
    <trip id="hour_14_756" depart="50415.70" from="-12968189#1" to="12968176" fromTaz="fringe-X20Y7" toTaz="grid-X19Y8" departLane="free" departSpeed="max"/>
    <trip id="hour_14_126" depart="50415.72" from="164785144" to="-40193144" fromTaz="fringe-X11Y4" toTaz="grid-X1Y12" departLane="free" departSpeed="max"/>
    <trip id="hour_14_968" depart="50415.75" from="929240359" to="275056710" fromTaz="fringe-X7Y28" toTaz="destination-X4Y30" departLane="free" departSpeed="max"/>
    <trip id="hour_14_2268" depart="50415.90" from="185260338" to="275056710" fromTaz="origin-X20Y25" toTaz="destination-X4Y30" departLane="free" departSpeed="max"/>
    <trip id="hour_14_1691" depart="50416.15" from="-11939543535" to="-375714879" fromTaz="grid-X21Y12" toTaz="fringe-X18Y26" departLane="free" departSpeed="max"/>
    <trip id="hour_14_2621" depart="50416.66" from="185260338" to="8896380" fromTaz="origin-X20Y25" toTaz="fringe-X23Y15" departLane="free" departSpeed="max"/>
    <trip id="hour_14_84" depart="50416.72" from="87194347" to="52045883" fromTaz="fringe-X11Y4" toTaz="fringe-X10Y1" departLane="free" departSpeed="max"/>
    <trip id="hour_14_3012" depart="50416.83" from="452051337" to="8896380" fromTaz="origin-X7Y1" toTaz="fringe-X23Y15" departLane="free" departSpeed="max"/>
    <trip id="hour_14_107" depart="50417.50" from="87194342" to="237582244" fromTaz="fringe-X11Y4" toTaz="fringe-X1Y12" departLane="free" departSpeed="max"/>
    <trip id="hour_14_444" depart="50417.68" from="326780461" to="143075780" fromTaz="fringe-X19Y22" toTaz="fringe-X20Y21" departLane="free" departSpeed="max"/>
    <trip id="hour_14_1322" depart="50417.76" from="-11939538997" to="929240359" fromTaz="grid-X11Y19" toTaz="fringe-X7Y28" departLane="free" departSpeed="max"/>
    <trip id="hour_14_169" depart="50417.83" from="87194347" to="633941671" fromTaz="fringe-X11Y4" toTaz="grid-X6Y19" departLane="free" departSpeed="max"/>
    <trip id="hour_14_2071" depart="50417.91" from="11939532048" to="-12968189#1" fromTaz="grid-X8Y2" toTaz="fringe-X20Y7" departLane="free" departSpeed="max"/>
    <trip id="hour_14_26" depart="50418.13" from="164785142" to="452051334" fromTaz="fringe-X11Y4" toTaz="destination-X7Y1" departLane="free" departSpeed="max"/>
    <trip id="hour_14_202" depart="50418.68" from="654765962" to="275056710" fromTaz="fringe-X16Y17" toTaz="destination-X4Y30" departLane="free" departSpeed="max"/>
    <trip id="hour_14_373" depart="50419.61" from="375714879" to="24793256" fromTaz="fringe-X18Y26" toTaz="fringe-X23Y16" departLane="free" departSpeed="max"/>
    <trip id="hour_14_1047" depart="50419.64" from="5213455" to="12968189#1" fromTaz="fringe-X7Y28" toTaz="fringe-X20Y7" departLane="free" departSpeed="max"/>
    <trip id="hour_14_2245" depart="50419.73" from="50472477" to="8896380" fromTaz="grid-X9Y23" toTaz="fringe-X23Y15" departLane="free" departSpeed="max"/>
    <trip id="hour_14_446" depart="50419.74" from="326780459" to="143075776" fromTaz="fringe-X19Y22" toTaz="fringe-X20Y21" departLane="free" departSpeed="max"/>
    <trip id="hour_14_2198" depart="50419.83" from="84803280" to="452051334" fromTaz="grid-X9Y2" toTaz="destination-X7Y1" departLane="free" departSpeed="max"/>
    <trip id="hour_14_2838" depart="50420.04" from="24821181" to="290538999" fromTaz="origin-X4Y30" toTaz="destination-X19Y25" departLane="free" departSpeed="max"/>
    <trip id="hour_14_1885" depart="50420.09" from="11939531085" to="-237582244" fromTaz="grid-X5Y20" toTaz="fringe-X1Y12" departLane="free" departSpeed="max"/>
    <trip id="hour_14_2390" depart="50420.18" from="185260338" to="275056710" fromTaz="origin-X20Y25" toTaz="destination-X4Y30" departLane="free" departSpeed="max"/>
    <trip id="hour_14_2221" depart="50420.36" from="-11939543830" to="275056710" fromTaz="grid-X9Y22" toTaz="destination-X4Y30" departLane="free" departSpeed="max"/>
    <trip id="hour_14_435" depart="50420.98" from="158346014" to="307023793" fromTaz="fringe-X19Y10" toTaz="fringe-X23Y15" departLane="free" departSpeed="max"/>
    <trip id="hour_14_1868" depart="50421.26" from="-11939538228" to="275056710" fromTaz="grid-X4Y28" toTaz="destination-X4Y30" departLane="free" departSpeed="max"/>
    <trip id="hour_14_2526" depart="50421.41" from="185260338" to="275056710" fromTaz="origin-X20Y25" toTaz="destination-X4Y30" departLane="free" departSpeed="max"/>
    <trip id="hour_14_996" depart="50422.28" from="326572945" to="-10666718" fromTaz="fringe-X7Y28" toTaz="fringe-X19Y23" departLane="free" departSpeed="max"/>
    <trip id="hour_14_3032" depart="50422.34" from="452051337" to="-346397321" fromTaz="origin-X7Y1" toTaz="grid-X19Y7" departLane="free" departSpeed="max"/>
    <trip id="hour_14_2074" depart="50422.47" from="71736662" to="-479358807" fromTaz="grid-X8Y2" toTaz="fringe-X22Y14" departLane="free" departSpeed="max"/>
    <trip id="hour_14_2759" depart="50422.69" from="24821181" to="290538999" fromTaz="origin-X4Y30" toTaz="destination-X19Y25" departLane="free" departSpeed="max"/>
    <trip id="hour_14_1509" depart="50424.00" from="-451704782" to="452051334" fromTaz="grid-X17Y6" toTaz="destination-X7Y1" departLane="free" departSpeed="max"/>
    <trip id="hour_14_1310" depart="50424.44" from="-11939532466" to="275056710" fromTaz="grid-X10Y25" toTaz="destination-X4Y30" departLane="free" departSpeed="max"/>
    <trip id="hour_14_575" depart="50424.98" from="326780462" to="-375714879" fromTaz="fringe-X19Y23" toTaz="fringe-X18Y26" departLane="free" departSpeed="max"/>
    <trip id="hour_14_3005" depart="50425.12" from="452051337" to="8896380" fromTaz="origin-X7Y1" toTaz="fringe-X23Y15" departLane="free" departSpeed="max"/>
    <trip id="hour_14_2980" depart="50425.69" from="452051337" to="-237582244" fromTaz="origin-X7Y1" toTaz="fringe-X1Y12" departLane="free" departSpeed="max"/>
    <trip id="hour_14_1458" depart="50426.38" from="396807590" to="375714879" fromTaz="grid-X15Y6" toTaz="fringe-X18Y26" departLane="free" departSpeed="max"/>
    <trip id="hour_14_1133" depart="50426.98" from="929240359" to="479358807" fromTaz="fringe-X7Y28" toTaz="fringe-X22Y14" departLane="free" departSpeed="max"/>
    <trip id="hour_14_57" depart="50427.48" from="164785142" to="452051334" fromTaz="fringe-X11Y4" toTaz="destination-X7Y1" departLane="free" departSpeed="max"/>
    <trip id="hour_14_2968" depart="50427.56" from="452051337" to="5058806" fromTaz="origin-X7Y1" toTaz="fringe-X18Y9" departLane="free" departSpeed="max"/>
    <trip id="hour_14_2565" depart="50427.65" from="185260338" to="275056710" fromTaz="origin-X20Y25" toTaz="destination-X4Y30" departLane="free" departSpeed="max"/>
    <trip id="hour_14_2235" depart="50427.81" from="-27051228" to="275056710" fromTaz="grid-X9Y23" toTaz="destination-X4Y30" departLane="free" departSpeed="max"/>
    <trip id="hour_14_3045" depart="50428.10" from="452051337" to="171039413" fromTaz="origin-X7Y1" toTaz="grid-X20Y11" departLane="free" departSpeed="max"/>
    <trip id="hour_14_1478" depart="50428.53" from="11939536389" to="275056710" fromTaz="grid-X16Y18" toTaz="destination-X4Y30" departLane="free" departSpeed="max"/>
    <trip id="hour_14_1808" depart="50428.77" from="-11939527018" to="-237582244" fromTaz="grid-X3Y14" toTaz="fringe-X1Y12" departLane="free" departSpeed="max"/>
    <trip id="hour_14_1208" depart="50428.78" from="326572941" to="134105523" fromTaz="fringe-X7Y28" toTaz="fringe-X24Y16" departLane="free" departSpeed="max"/>
    <trip id="hour_14_1890" depart="50429.15" from="-908128020" to="307023793" fromTaz="grid-X5Y21" toTaz="fringe-X23Y15" departLane="free" departSpeed="max"/>
    <trip id="hour_14_1063" depart="50429.50" from="929240359" to="12968189#1" fromTaz="fringe-X7Y28" toTaz="fringe-X20Y7" departLane="free" departSpeed="max"/>
    <trip id="hour_14_2083" depart="50429.78" from="11939530890" to="-24793256" fromTaz="grid-X8Y2" toTaz="fringe-X23Y16" departLane="free" departSpeed="max"/>
    <trip id="hour_14_723" depart="50429.82" from="12968189#1" to="452051334" fromTaz="fringe-X20Y7" toTaz="destination-X7Y1" departLane="free" departSpeed="max"/>
    <trip id="hour_14_2213" depart="50429.99" from="11939525667" to="275056710" fromTaz="grid-X9Y21" toTaz="destination-X4Y30" departLane="free" departSpeed="max"/>
    <trip id="hour_14_2931" depart="50430.05" from="452051337" to="290538999" fromTaz="origin-X7Y1" toTaz="destination-X19Y25" departLane="free" departSpeed="max"/>
    <trip id="hour_14_2676" depart="50430.18" from="24821181" to="290538999" fromTaz="origin-X4Y30" toTaz="destination-X19Y25" departLane="free" departSpeed="max"/>
    <trip id="hour_14_81" depart="50430.86" from="164785142" to="452051334" fromTaz="fringe-X11Y4" toTaz="destination-X7Y1" departLane="free" departSpeed="max"/>
    <trip id="hour_14_2620" depart="50430.87" from="185260338" to="307024527" fromTaz="origin-X20Y25" toTaz="fringe-X23Y15" departLane="free" departSpeed="max"/>
    <trip id="hour_14_2564" depart="50431.13" from="185260338" to="275056710" fromTaz="origin-X20Y25" toTaz="destination-X4Y30" departLane="free" departSpeed="max"/>
    <trip id="hour_14_527" depart="50431.44" from="-10666718" to="290538999" fromTaz="fringe-X19Y23" toTaz="destination-X19Y25" departLane="free" departSpeed="max"/>
    <trip id="hour_14_224" depart="50431.69" from="237130850" to="290538999" fromTaz="fringe-X16Y26" toTaz="destination-X19Y25" departLane="free" departSpeed="max"/>
    <trip id="hour_14_1922" depart="50431.76" from="1219312750" to="479358807" fromTaz="grid-X5Y24" toTaz="fringe-X22Y14" departLane="free" departSpeed="max"/>
    <trip id="hour_14_1762" depart="50431.80" from="-11939548270" to="-375714879" fromTaz="grid-X23Y16" toTaz="fringe-X18Y26" departLane="free" departSpeed="max"/>
    <trip id="hour_14_941" depart="50432.26" from="-40425140" to="958174516" fromTaz="fringe-X4Y29" toTaz="fringe-X1Y23" departLane="free" departSpeed="max"/>
    <trip id="hour_14_242" depart="50432.34" from="11939526419" to="290538999" fromTaz="fringe-X16Y26" toTaz="destination-X19Y25" departLane="free" departSpeed="max"/>
    <trip id="hour_14_2731" depart="50432.76" from="24821181" to="290538999" fromTaz="origin-X4Y30" toTaz="destination-X19Y25" departLane="free" departSpeed="max"/>
    <trip id="hour_14_1954" depart="50432.93" from="409783350" to="-237582244" fromTaz="grid-X5Y27" toTaz="fringe-X1Y12" departLane="free" departSpeed="max"/>
    <trip id="hour_14_1236" depart="50433.34" from="929240359" to="11939531188" fromTaz="fringe-X7Y28" toTaz="grid-X19Y8" departLane="free" departSpeed="max"/>
    <trip id="hour_14_460" depart="50433.79" from="-326780459" to="8896380" fromTaz="fringe-X19Y22" toTaz="fringe-X23Y15" departLane="free" departSpeed="max"/>
    <trip id="hour_14_1541" depart="50434.45" from="-346397313" to="452051334" fromTaz="grid-X17Y7" toTaz="destination-X7Y1" departLane="free" departSpeed="max"/>
    <trip id="hour_14_1589" depart="50435.00" from="-11939538197" to="275056710" fromTaz="grid-X1Y23" toTaz="destination-X4Y30" departLane="free" departSpeed="max"/>
    <trip id="hour_14_1577" depart="50435.18" from="11939527592" to="452051334" fromTaz="grid-X19Y8" toTaz="destination-X7Y1" departLane="free" departSpeed="max"/>
    <trip id="hour_14_679" depart="50435.70" from="143075776" to="158347370" fromTaz="fringe-X20Y21" toTaz="fringe-X19Y10" departLane="free" departSpeed="max"/>
    <trip id="hour_14_904" depart="50435.75" from="40425140" to="275056710" fromTaz="fringe-X4Y29" toTaz="destination-X4Y30" departLane="free" departSpeed="max"/>
    <trip id="hour_14_20" depart="50435.86" from="164785142" to="452051334" fromTaz="fringe-X11Y4" toTaz="destination-X7Y1" departLane="free" departSpeed="max"/>
    <trip id="hour_14_2709" depart="50435.90" from="24821181" to="290538999" fromTaz="origin-X4Y30" toTaz="destination-X19Y25" departLane="free" departSpeed="max"/>
    <trip id="hour_14_1193" depart="50436.35" from="326572945" to="-24793256" fromTaz="fringe-X7Y28" toTaz="fringe-X23Y16" departLane="free" departSpeed="max"/>
    <trip id="hour_14_188" depart="50437.12" from="87194347" to="11939525683" fromTaz="fringe-X11Y4" toTaz="grid-X9Y2" departLane="free" departSpeed="max"/>
    <trip id="hour_14_1717" depart="50437.17" from="-158415224" to="12968189#1" fromTaz="grid-X21Y12" toTaz="fringe-X20Y7" departLane="free" departSpeed="max"/>
    <trip id="hour_14_1318" depart="50437.22" from="11939546858" to="275056710" fromTaz="grid-X11Y19" toTaz="destination-X4Y30" departLane="free" departSpeed="max"/>
    <trip id="hour_14_1671" depart="50437.39" from="11939539637" to="12968189#1" fromTaz="grid-X21Y11" toTaz="fringe-X20Y7" departLane="free" departSpeed="max"/>
    <trip id="hour_14_481" depart="50437.70" from="326780461" to="-24793256" fromTaz="fringe-X19Y22" toTaz="fringe-X23Y16" departLane="free" departSpeed="max"/>
    <trip id="hour_14_1274" depart="50437.71" from="453135921" to="452051334" fromTaz="grid-X10Y2" toTaz="destination-X7Y1" departLane="free" departSpeed="max"/>
    <trip id="hour_14_2712" depart="50437.87" from="24821181" to="290538999" fromTaz="origin-X4Y30" toTaz="destination-X19Y25" departLane="free" departSpeed="max"/>
    <trip id="hour_14_2777" depart="50437.96" from="24821181" to="290538999" fromTaz="origin-X4Y30" toTaz="destination-X19Y25" departLane="free" departSpeed="max"/>
    <trip id="hour_14_2014" depart="50437.97" from="985101031" to="-237582244" fromTaz="grid-X6Y4" toTaz="fringe-X1Y12" departLane="free" departSpeed="max"/>
    <trip id="hour_14_799" depart="50438.97" from="-479358807" to="452051334" fromTaz="fringe-X22Y14" toTaz="destination-X7Y1" departLane="free" departSpeed="max"/>
    <trip id="hour_14_133" depart="50439.03" from="164785144" to="-11939536217" fromTaz="fringe-X11Y4" toTaz="grid-X20Y9" departLane="free" departSpeed="max"/>
    <trip id="hour_14_204" depart="50439.30" from="-654765962" to="275056710" fromTaz="fringe-X16Y17" toTaz="destination-X4Y30" departLane="free" departSpeed="max"/>
    <trip id="hour_14_2862" depart="50439.66" from="24821181" to="290538999" fromTaz="origin-X4Y30" toTaz="destination-X19Y25" departLane="free" departSpeed="max"/>
    <trip id="hour_14_187" depart="50439.70" from="164785142" to="71890080" fromTaz="fringe-X11Y4" toTaz="grid-X8Y3" departLane="free" departSpeed="max"/>
    <trip id="hour_14_2411" depart="50439.97" from="185260338" to="275056710" fromTaz="origin-X20Y25" toTaz="destination-X4Y30" departLane="free" departSpeed="max"/>
    <trip id="hour_14_551" depart="50440.26" from="326780462" to="11939526419" fromTaz="fringe-X19Y23" toTaz="fringe-X16Y26" departLane="free" departSpeed="max"/>
    <trip id="hour_14_1752" depart="50440.64" from="-11939535752" to="452051334" fromTaz="grid-X23Y14" toTaz="destination-X7Y1" departLane="free" departSpeed="max"/>
    <trip id="hour_14_350" depart="50441.04" from="-375714879" to="479358807" fromTaz="fringe-X18Y26" toTaz="fringe-X22Y14" departLane="free" departSpeed="max"/>
    <trip id="hour_14_329" depart="50441.59" from="375714879" to="290538999" fromTaz="fringe-X18Y26" toTaz="destination-X19Y25" departLane="free" departSpeed="max"/>
    <trip id="hour_14_1180" depart="50441.66" from="5213455" to="-24793256" fromTaz="fringe-X7Y28" toTaz="fringe-X23Y16" departLane="free" departSpeed="max"/>
    <trip id="hour_14_74" depart="50442.16" from="87194347" to="452051334" fromTaz="fringe-X11Y4" toTaz="destination-X7Y1" departLane="free" departSpeed="max"/>
    <trip id="hour_14_1748" depart="50442.40" from="11939531288" to="-12968189#1" fromTaz="grid-X22Y14" toTaz="fringe-X20Y7" departLane="free" departSpeed="max"/>
    <trip id="hour_14_2908" depart="50442.49" from="24821181" to="214317426" fromTaz="origin-X4Y30" toTaz="grid-X11Y26" departLane="free" departSpeed="max"/>
    <trip id="hour_14_1605" depart="50442.67" from="171024561" to="452051334" fromTaz="grid-X20Y11" toTaz="destination-X7Y1" departLane="free" departSpeed="max"/>
    <trip id="hour_14_1101" depart="50443.33" from="929240359" to="-121921459" fromTaz="fringe-X7Y28" toTaz="fringe-X22Y11" departLane="free" departSpeed="max"/>
    <trip id="hour_14_307" depart="50443.83" from="150270054" to="307024526" fromTaz="fringe-X16Y26" toTaz="fringe-X23Y15" departLane="free" departSpeed="max"/>
    <trip id="hour_14_2049" depart="50444.26" from="71736669" to="452051334" fromTaz="grid-X8Y2" toTaz="destination-X7Y1" departLane="free" departSpeed="max"/>
    <trip id="hour_14_649" depart="50444.26" from="143075776" to="11939526419" fromTaz="fringe-X20Y21" toTaz="fringe-X16Y26" departLane="free" departSpeed="max"/>
    <trip id="hour_14_1299" depart="50444.99" from="11939537277" to="275056710" fromTaz="grid-X10Y24" toTaz="destination-X4Y30" departLane="free" departSpeed="max"/>
    <trip id="hour_14_2487" depart="50445.59" from="185260338" to="275056710" fromTaz="origin-X20Y25" toTaz="destination-X4Y30" departLane="free" departSpeed="max"/>
    <trip id="hour_14_449" depart="50446.25" from="326780461" to="-12968189#1" fromTaz="fringe-X19Y22" toTaz="fringe-X20Y7" departLane="free" departSpeed="max"/>
    <trip id="hour_14_2237" depart="50446.26" from="46968482" to="275056710" fromTaz="grid-X9Y23" toTaz="destination-X4Y30" departLane="free" departSpeed="max"/>
    <trip id="hour_14_2304" depart="50446.79" from="185260338" to="275056710" fromTaz="origin-X20Y25" toTaz="destination-X4Y30" departLane="free" departSpeed="max"/>
    <trip id="hour_14_2707" depart="50446.82" from="24821181" to="290538999" fromTaz="origin-X4Y30" toTaz="destination-X19Y25" departLane="free" departSpeed="max"/>
    <trip id="hour_14_1004" depart="50446.85" from="326572945" to="-958174516" fromTaz="fringe-X7Y28" toTaz="fringe-X1Y23" departLane="free" departSpeed="max"/>
    <trip id="hour_14_2575" depart="50446.85" from="185260338" to="375714879" fromTaz="origin-X20Y25" toTaz="fringe-X18Y26" departLane="free" departSpeed="max"/>
    <trip id="hour_14_710" depart="50447.16" from="-143075780" to="695002984" fromTaz="fringe-X20Y21" toTaz="grid-X20Y7" departLane="free" departSpeed="max"/>
    <trip id="hour_14_709" depart="50447.95" from="143075776" to="176408936" fromTaz="fringe-X20Y21" toTaz="grid-X19Y8" departLane="free" departSpeed="max"/>
    <trip id="hour_14_772" depart="50448.42" from="12968189#1" to="11939524072" fromTaz="fringe-X20Y7" toTaz="grid-X24Y15" departLane="free" departSpeed="max"/>
    <trip id="hour_14_620" depart="50448.71" from="143075780" to="290538999" fromTaz="fringe-X20Y21" toTaz="destination-X19Y25" departLane="free" departSpeed="max"/>
    <trip id="hour_14_537" depart="50448.84" from="-10666718" to="290538999" fromTaz="fringe-X19Y23" toTaz="destination-X19Y25" departLane="free" departSpeed="max"/>
    <trip id="hour_14_2122" depart="50449.06" from="-71890080" to="452051334" fromTaz="grid-X8Y3" toTaz="destination-X7Y1" departLane="free" departSpeed="max"/>
    <trip id="hour_14_2610" depart="50449.53" from="185260338" to="-479358807" fromTaz="origin-X20Y25" toTaz="fringe-X22Y14" departLane="free" departSpeed="max"/>
    <trip id="hour_14_1855" depart="50449.85" from="-28981425" to="-654765962" fromTaz="grid-X4Y26" toTaz="fringe-X16Y17" departLane="free" departSpeed="max"/>
    <trip id="hour_14_2496" depart="50450.01" from="185260338" to="275056710" fromTaz="origin-X20Y25" toTaz="destination-X4Y30" departLane="free" departSpeed="max"/>
    <trip id="hour_14_1689" depart="50450.24" from="11939535807" to="452051334" fromTaz="grid-X21Y12" toTaz="destination-X7Y1" departLane="free" departSpeed="max"/>
    <trip id="hour_14_2996" depart="50450.39" from="452051337" to="121921459" fromTaz="origin-X7Y1" toTaz="fringe-X22Y11" departLane="free" departSpeed="max"/>
    <trip id="hour_14_153" depart="50450.60" from="87194347" to="-11939525104" fromTaz="fringe-X11Y4" toTaz="grid-X4Y11" departLane="free" departSpeed="max"/>
    <trip id="hour_14_2970" depart="50450.80" from="452051337" to="57373256" fromTaz="origin-X7Y1" toTaz="fringe-X18Y9" departLane="free" departSpeed="max"/>
    <trip id="hour_14_2329" depart="50451.15" from="185260338" to="275056710" fromTaz="origin-X20Y25" toTaz="destination-X4Y30" departLane="free" departSpeed="max"/>
    <trip id="hour_14_475" depart="50451.44" from="326780461" to="307023793" fromTaz="fringe-X19Y22" toTaz="fringe-X23Y15" departLane="free" departSpeed="max"/>
    <trip id="hour_14_1308" depart="50451.58" from="-11939532464" to="275056710" fromTaz="grid-X10Y25" toTaz="destination-X4Y30" departLane="free" departSpeed="max"/>
    <trip id="hour_14_1373" depart="50451.68" from="11939549119" to="275056710" fromTaz="grid-X12Y26" toTaz="destination-X4Y30" departLane="free" departSpeed="max"/>
    <trip id="hour_14_873" depart="50451.97" from="134105523" to="452051334" fromTaz="fringe-X24Y16" toTaz="destination-X7Y1" departLane="free" departSpeed="max"/>
    <trip id="hour_14_2834" depart="50452.03" from="24821181" to="290538999" fromTaz="origin-X4Y30" toTaz="destination-X19Y25" departLane="free" departSpeed="max"/>
    <trip id="hour_14_1430" depart="50452.27" from="-11939527789" to="275056710" fromTaz="grid-X15Y18" toTaz="destination-X4Y30" departLane="free" departSpeed="max"/>
    <trip id="hour_14_601" depart="50452.35" from="958174516" to="275056710" fromTaz="fringe-X1Y23" toTaz="destination-X4Y30" departLane="free" departSpeed="max"/>
    <trip id="hour_14_11" depart="50452.36" from="-52045883" to="-11939525950" fromTaz="fringe-X10Y1" toTaz="grid-X10Y3" departLane="free" departSpeed="max"/>
    <trip id="hour_14_2880" depart="50452.39" from="24821181" to="290538999" fromTaz="origin-X4Y30" toTaz="destination-X19Y25" departLane="free" departSpeed="max"/>
    <trip id="hour_14_2103" depart="50452.47" from="-61674398" to="307024526" fromTaz="grid-X8Y23" toTaz="fringe-X23Y15" departLane="free" departSpeed="max"/>
    <trip id="hour_14_2867" depart="50452.62" from="24821181" to="290538999" fromTaz="origin-X4Y30" toTaz="destination-X19Y25" departLane="free" departSpeed="max"/>
    <trip id="hour_14_2312" depart="50453.50" from="185260338" to="275056710" fromTaz="origin-X20Y25" toTaz="destination-X4Y30" departLane="free" departSpeed="max"/>
    <trip id="hour_14_1523" depart="50453.94" from="451704782" to="-237582244" fromTaz="grid-X17Y6" toTaz="fringe-X1Y12" departLane="free" departSpeed="max"/>
    <trip id="hour_14_1413" depart="50454.11" from="-11939527805" to="290538999" fromTaz="grid-X14Y5" toTaz="destination-X19Y25" departLane="free" departSpeed="max"/>