<?xml version="1.0" encoding="UTF-8"?>

<routes xmlns:xsi="http://www.w3.org/2001/XMLSchema-instance" xsi:noNamespaceSchemaLocation="http://sumo.dlr.de/xsd/routes_file.xsd">
    <trip id="hour_7_2014" depart="25200.19" from="185260338" to="275056710" fromTaz="origin-X20Y25" toTaz="destination-X4Y30" departLane="free" departSpeed="max"/>
    <trip id="hour_7_71" depart="25200.56" from="87194347" to="-52045883" fromTaz="fringe-X11Y4" toTaz="fringe-X10Y1" departLane="free" departSpeed="max"/>
    <trip id="hour_7_174" depart="25200.81" from="150270059" to="375714879" fromTaz="fringe-X16Y26" toTaz="fringe-X18Y26" departLane="free" departSpeed="max"/>
    <trip id="hour_7_2520" depart="25200.90" from="24821181" to="290538999" fromTaz="origin-X4Y30" toTaz="destination-X19Y25" departLane="free" departSpeed="max"/>
    <trip id="hour_7_625" depart="25200.90" from="-12968189#1" to="57373256" fromTaz="fringe-X20Y7" toTaz="fringe-X18Y9" departLane="free" departSpeed="max"/>
    <trip id="hour_7_136" depart="25201.15" from="11939526419" to="275056710" fromTaz="fringe-X16Y26" toTaz="destination-X4Y30" departLane="free" departSpeed="max"/>
    <trip id="hour_7_2296" depart="25201.24" from="24821181" to="290538999" fromTaz="origin-X4Y30" toTaz="destination-X19Y25" departLane="free" departSpeed="max"/>
    <trip id="hour_7_755" depart="25203.08" from="40425140" to="275056710" fromTaz="fringe-X4Y29" toTaz="destination-X4Y30" departLane="free" departSpeed="max"/>
    <trip id="hour_7_2350" depart="25203.46" from="24821181" to="290538999" fromTaz="origin-X4Y30" toTaz="destination-X19Y25" departLane="free" departSpeed="max"/>
    <trip id="hour_7_1553" depart="25204.33" from="-11939534991" to="275056710" fromTaz="grid-X2Y25" toTaz="destination-X4Y30" departLane="free" departSpeed="max"/>
    <trip id="hour_7_1382" depart="25204.55" from="11939539637" to="275056710" fromTaz="grid-X21Y11" toTaz="destination-X4Y30" departLane="free" departSpeed="max"/>
    <trip id="hour_7_813" depart="25205.00" from="-40425140" to="-958174516" fromTaz="fringe-X4Y29" toTaz="fringe-X1Y23" departLane="free" departSpeed="max"/>
    <trip id="hour_7_1953" depart="25205.34" from="185260338" to="275056710" fromTaz="origin-X20Y25" toTaz="destination-X4Y30" departLane="free" departSpeed="max"/>
    <trip id="hour_7_2476" depart="25206.09" from="24821181" to="290538999" fromTaz="origin-X4Y30" toTaz="destination-X19Y25" departLane="free" departSpeed="max"/>
    <trip id="hour_7_300" depart="25206.14" from="237130850" to="-479358807" fromTaz="fringe-X16Y26" toTaz="fringe-X22Y14" departLane="free" departSpeed="max"/>
    <trip id="hour_7_338" depart="25206.49" from="-375714879" to="-143075776" fromTaz="fringe-X18Y26" toTaz="fringe-X20Y21" departLane="free" departSpeed="max"/>
    <trip id="hour_7_651" depart="25206.89" from="479358807" to="452051334" fromTaz="fringe-X22Y14" toTaz="destination-X7Y1" departLane="free" departSpeed="max"/>
    <trip id="hour_7_482" depart="25206.97" from="326780462" to="290538999" fromTaz="fringe-X19Y23" toTaz="destination-X19Y25" departLane="free" departSpeed="max"/>
    <trip id="hour_7_2486" depart="25207.37" from="24821181" to="290538999" fromTaz="origin-X4Y30" toTaz="destination-X19Y25" departLane="free" departSpeed="max"/>
    <trip id="hour_7_45" depart="25207.38" from="87194342" to="452051334" fromTaz="fringe-X11Y4" toTaz="destination-X7Y1" departLane="free" departSpeed="max"/>
    <trip id="hour_7_1983" depart="25207.55" from="185260338" to="275056710" fromTaz="origin-X20Y25" toTaz="destination-X4Y30" departLane="free" departSpeed="max"/>
    <trip id="hour_7_1348" depart="25208.07" from="-171024553" to="290538999" fromTaz="grid-X20Y9" toTaz="destination-X19Y25" departLane="free" departSpeed="max"/>
    <trip id="hour_7_214" depart="25208.81" from="24711107" to="158346014" fromTaz="fringe-X16Y26" toTaz="fringe-X19Y10" departLane="free" departSpeed="max"/>
    <trip id="hour_7_517" depart="25208.91" from="-10666718" to="-375714879" fromTaz="fringe-X19Y23" toTaz="fringe-X18Y26" departLane="free" departSpeed="max"/>
    <trip id="hour_7_1682" depart="25209.34" from="-11939550105" to="275056710" fromTaz="grid-X5Y19" toTaz="destination-X4Y30" departLane="free" departSpeed="max"/>
    <trip id="hour_7_1864" depart="25209.42" from="155094215" to="452051334" fromTaz="grid-X8Y3" toTaz="destination-X7Y1" departLane="free" departSpeed="max"/>
    <trip id="hour_7_230" depart="25211.12" from="24711107" to="326780461" fromTaz="fringe-X16Y26" toTaz="fringe-X19Y22" departLane="free" departSpeed="max"/>
    <trip id="hour_7_1467" depart="25212.02" from="-4814762" to="5058806" fromTaz="grid-X22Y12" toTaz="fringe-X18Y9" departLane="free" departSpeed="max"/>
    <trip id="hour_7_2463" depart="25212.48" from="24821181" to="290538999" fromTaz="origin-X4Y30" toTaz="destination-X19Y25" departLane="free" departSpeed="max"/>
    <trip id="hour_7_2545" depart="25212.68" from="24821181" to="290538999" fromTaz="origin-X4Y30" toTaz="destination-X19Y25" departLane="free" departSpeed="max"/>
    <trip id="hour_7_1037" depart="25212.95" from="11939540185" to="-37850228" fromTaz="grid-X10Y3" toTaz="fringe-X7Y0" departLane="free" departSpeed="max"/>
    <trip id="hour_7_499" depart="25212.98" from="-10666718" to="275056710" fromTaz="fringe-X19Y23" toTaz="destination-X4Y30" departLane="free" departSpeed="max"/>
    <trip id="hour_7_2614" depart="25213.10" from="24821181" to="11939526250" fromTaz="origin-X4Y30" toTaz="grid-X11Y25" departLane="free" departSpeed="max"/>
    <trip id="hour_7_1769" depart="25213.61" from="-633941671" to="143075780" fromTaz="grid-X6Y19" toTaz="fringe-X20Y21" departLane="free" departSpeed="max"/>
    <trip id="hour_7_1466" depart="25215.11" from="-4493192" to="375714879" fromTaz="grid-X22Y12" toTaz="fringe-X18Y26" departLane="free" departSpeed="max"/>
    <trip id="hour_7_2450" depart="25215.14" from="24821181" to="290538999" fromTaz="origin-X4Y30" toTaz="destination-X19Y25" departLane="free" departSpeed="max"/>
    <trip id="hour_7_1583" depart="25215.17" from="-11939537337" to="275056710" fromTaz="grid-X3Y26" toTaz="destination-X4Y30" departLane="free" departSpeed="max"/>
    <trip id="hour_7_1105" depart="25215.22" from="11939549674" to="287201448" fromTaz="grid-X13Y5" toTaz="fringe-X18Y9" departLane="free" departSpeed="max"/>
    <trip id="hour_7_995" depart="25215.27" from="929240359" to="-30665181" fromTaz="fringe-X7Y28" toTaz="grid-X9Y23" departLane="free" departSpeed="max"/>
    <trip id="hour_7_774" depart="25215.70" from="-40425140" to="275056710" fromTaz="fringe-X4Y29" toTaz="destination-X4Y30" departLane="free" departSpeed="max"/>
    <trip id="hour_7_2346" depart="25215.90" from="24821181" to="290538999" fromTaz="origin-X4Y30" toTaz="destination-X19Y25" departLane="free" departSpeed="max"/>
    <trip id="hour_7_1695" depart="25216.15" from="-1219312748" to="275056710" fromTaz="grid-X5Y23" toTaz="destination-X4Y30" departLane="free" departSpeed="max"/>
    <trip id="hour_7_2722" depart="25216.62" from="452051337" to="-184785911" fromTaz="origin-X7Y1" toTaz="grid-X20Y10" departLane="free" departSpeed="max"/>
    <trip id="hour_7_2688" depart="25216.66" from="452051337" to="-12968189#1" fromTaz="origin-X7Y1" toTaz="fringe-X20Y7" departLane="free" departSpeed="max"/>
    <trip id="hour_7_2130" depart="25216.72" from="185260338" to="275056710" fromTaz="origin-X20Y25" toTaz="destination-X4Y30" departLane="free" departSpeed="max"/>
    <trip id="hour_7_539" depart="25217.15" from="10666718" to="185406398" fromTaz="fringe-X19Y23" toTaz="fringe-X1Y22" departLane="free" departSpeed="max"/>
    <trip id="hour_7_430" depart="25217.18" from="326780459" to="307023793" fromTaz="fringe-X19Y22" toTaz="fringe-X23Y15" departLane="free" departSpeed="max"/>
    <trip id="hour_7_464" depart="25217.68" from="326780462" to="290538999" fromTaz="fringe-X19Y23" toTaz="destination-X19Y25" departLane="free" departSpeed="max"/>
    <trip id="hour_7_155" depart="25217.81" from="11939526419" to="452051334" fromTaz="fringe-X16Y26" toTaz="destination-X7Y1" departLane="free" departSpeed="max"/>
    <trip id="hour_7_2126" depart="25217.91" from="185260338" to="275056710" fromTaz="origin-X20Y25" toTaz="destination-X4Y30" departLane="free" departSpeed="max"/>
    <trip id="hour_7_29" depart="25218.13" from="164785142" to="452051334" fromTaz="fringe-X11Y4" toTaz="destination-X7Y1" departLane="free" departSpeed="max"/>
    <trip id="hour_7_72" depart="25218.68" from="87194342" to="-52045883" fromTaz="fringe-X11Y4" toTaz="fringe-X10Y1" departLane="free" departSpeed="max"/>
    <trip id="hour_7_392" depart="25219.61" from="326780459" to="452051334" fromTaz="fringe-X19Y22" toTaz="destination-X7Y1" departLane="free" departSpeed="max"/>
    <trip id="hour_7_2319" depart="25219.73" from="24821181" to="290538999" fromTaz="origin-X4Y30" toTaz="destination-X19Y25" departLane="free" departSpeed="max"/>
    <trip id="hour_7_466" depart="25219.74" from="-10666718" to="290538999" fromTaz="fringe-X19Y23" toTaz="destination-X19Y25" departLane="free" departSpeed="max"/>
    <trip id="hour_7_2264" depart="25219.83" from="24821181" to="290538999" fromTaz="origin-X4Y30" toTaz="destination-X19Y25" departLane="free" departSpeed="max"/>
    <trip id="hour_7_2468" depart="25220.18" from="24821181" to="290538999" fromTaz="origin-X4Y30" toTaz="destination-X19Y25" departLane="free" departSpeed="max"/>
    <trip id="hour_7_2291" depart="25220.36" from="24821181" to="290538999" fromTaz="origin-X4Y30" toTaz="destination-X19Y25" departLane="free" departSpeed="max"/>
    <trip id="hour_7_1872" depart="25221.26" from="-71890080" to="452051334" fromTaz="grid-X8Y3" toTaz="destination-X7Y1" departLane="free" departSpeed="max"/>
    <trip id="hour_7_2603" depart="25221.41" from="24821181" to="143075776" fromTaz="origin-X4Y30" toTaz="fringe-X20Y21" departLane="free" departSpeed="max"/>
    <trip id="hour_7_1935" depart="25222.64" from="185260338" to="275056710" fromTaz="origin-X20Y25" toTaz="destination-X4Y30" departLane="free" departSpeed="max"/>
    <trip id="hour_7_110" depart="25222.71" from="87194347" to="-11939537896" fromTaz="fringe-X11Y4" toTaz="grid-X2Y12" departLane="free" departSpeed="max"/>
    <trip id="hour_7_1284" depart="25222.82" from="-11939538898" to="-375714879" fromTaz="grid-X20Y10" toTaz="fringe-X18Y26" departLane="free" departSpeed="max"/>
    <trip id="hour_7_771" depart="25223.51" from="-40425140" to="275056710" fromTaz="fringe-X4Y29" toTaz="destination-X4Y30" departLane="free" departSpeed="max"/>
    <trip id="hour_7_602" depart="25223.70" from="12968189#1" to="452051334" fromTaz="fringe-X20Y7" toTaz="destination-X7Y1" departLane="free" departSpeed="max"/>
    <trip id="hour_7_1520" depart="25224.00" from="-11939548270" to="-143075776" fromTaz="grid-X23Y16" toTaz="fringe-X20Y21" departLane="free" departSpeed="max"/>
    <trip id="hour_7_1313" depart="25224.44" from="-171039413" to="11939526419" fromTaz="grid-X20Y11" toTaz="fringe-X16Y26" departLane="free" departSpeed="max"/>
    <trip id="hour_7_893" depart="25224.58" from="-326572945" to="275056710" fromTaz="fringe-X7Y28" toTaz="destination-X4Y30" departLane="free" departSpeed="max"/>
    <trip id="hour_7_586" depart="25224.98" from="4725334" to="-143075776" fromTaz="fringe-X20Y25" toTaz="fringe-X20Y21" departLane="free" departSpeed="max"/>
    <trip id="hour_7_1779" depart="25225.12" from="930774593" to="143075776" fromTaz="grid-X6Y23" toTaz="fringe-X20Y21" departLane="free" departSpeed="max"/>
    <trip id="hour_7_810" depart="25226.00" from="40425140" to="958174516" fromTaz="fringe-X4Y29" toTaz="fringe-X1Y23" departLane="free" departSpeed="max"/>
    <trip id="hour_7_973" depart="25226.02" from="5213455" to="11939524969" fromTaz="fringe-X7Y28" toTaz="grid-X24Y15" departLane="free" departSpeed="max"/>
    <trip id="hour_7_2612" depart="25226.37" from="24821181" to="11939544126" fromTaz="origin-X4Y30" toTaz="grid-X10Y25" departLane="free" departSpeed="max"/>
    <trip id="hour_7_1120" depart="25226.64" from="11939548477" to="452051334" fromTaz="grid-X15Y5" toTaz="destination-X7Y1" departLane="free" departSpeed="max"/>
    <trip id="hour_7_60" depart="25227.48" from="164785142" to="452051334" fromTaz="fringe-X11Y4" toTaz="destination-X7Y1" departLane="free" departSpeed="max"/>
    <trip id="hour_7_1203" depart="25228.78" from="-11939531295" to="452051334" fromTaz="grid-X17Y7" toTaz="destination-X7Y1" departLane="free" departSpeed="max"/>
    <trip id="hour_7_2139" depart="25229.78" from="185260338" to="275056710" fromTaz="origin-X20Y25" toTaz="destination-X4Y30" departLane="free" departSpeed="max"/>
    <trip id="hour_7_739" depart="25229.82" from="134105523" to="452051334" fromTaz="fringe-X24Y16" toTaz="destination-X7Y1" departLane="free" departSpeed="max"/>
    <trip id="hour_7_2280" depart="25229.99" from="24821181" to="290538999" fromTaz="origin-X4Y30" toTaz="destination-X19Y25" departLane="free" departSpeed="max"/>
    <trip id="hour_7_2687" depart="25230.87" from="452051337" to="12968189#1" fromTaz="origin-X7Y1" toTaz="fringe-X20Y7" departLane="free" departSpeed="max"/>
    <trip id="hour_7_2238" depart="25230.97" from="24821181" to="290538999" fromTaz="origin-X4Y30" toTaz="destination-X19Y25" departLane="free" departSpeed="max"/>
    <trip id="hour_7_1141" depart="25231.01" from="-11939536646" to="275056710" fromTaz="grid-X16Y18" toTaz="destination-X4Y30" departLane="free" departSpeed="max"/>
    <trip id="hour_7_240" depart="25231.69" from="237130850" to="143075776" fromTaz="fringe-X16Y26" toTaz="fringe-X20Y21" departLane="free" departSpeed="max"/>
    <trip id="hour_7_1759" depart="25231.73" from="11939533350" to="275056710" fromTaz="grid-X6Y16" toTaz="destination-X4Y30" departLane="free" departSpeed="max"/>
    <trip id="hour_7_1938" depart="25231.76" from="185260338" to="275056710" fromTaz="origin-X20Y25" toTaz="destination-X4Y30" departLane="free" departSpeed="max"/>
    <trip id="hour_7_2660" depart="25231.88" from="452051337" to="-52045883" fromTaz="origin-X7Y1" toTaz="fringe-X10Y1" departLane="free" departSpeed="max"/>
    <trip id="hour_7_1274" depart="25232.14" from="11939547462" to="290538999" fromTaz="grid-X20Y10" toTaz="destination-X19Y25" departLane="free" departSpeed="max"/>
    <trip id="hour_7_258" depart="25232.34" from="11939526419" to="-143075780" fromTaz="fringe-X16Y26" toTaz="fringe-X20Y21" departLane="free" departSpeed="max"/>
    <trip id="hour_7_2105" depart="25232.95" from="185260338" to="275056710" fromTaz="origin-X20Y25" toTaz="destination-X4Y30" departLane="free" departSpeed="max"/>
    <trip id="hour_7_653" depart="25233.25" from="-479358807" to="452051334" fromTaz="fringe-X22Y14" toTaz="destination-X7Y1" departLane="free" departSpeed="max"/>
    <trip id="hour_7_2151" depart="25233.27" from="185260338" to="275056710" fromTaz="origin-X20Y25" toTaz="destination-X4Y30" departLane="free" departSpeed="max"/>
    <trip id="hour_7_1234" depart="25233.34" from="11939537420" to="452051334" fromTaz="grid-X18Y7" toTaz="destination-X7Y1" departLane="free" departSpeed="max"/>
    <trip id="hour_7_480" depart="25233.79" from="10666718" to="290538999" fromTaz="fringe-X19Y23" toTaz="destination-X19Y25" departLane="free" departSpeed="max"/>
    <trip id="hour_7_1549" depart="25234.45" from="-1195225554" to="275056710" fromTaz="grid-X2Y24" toTaz="destination-X4Y30" departLane="free" departSpeed="max"/>
    <trip id="hour_7_794" depart="25234.92" from="40425140" to="275056710" fromTaz="fringe-X4Y29" toTaz="destination-X4Y30" departLane="free" departSpeed="max"/>
    <trip id="hour_7_1598" depart="25235.00" from="-11939525729" to="275056710" fromTaz="grid-X3Y27" toTaz="destination-X4Y30" departLane="free" departSpeed="max"/>
    <trip id="hour_7_1584" depart="25235.18" from="-158817487" to="275056710" fromTaz="grid-X3Y26" toTaz="destination-X4Y30" departLane="free" departSpeed="max"/>
    <trip id="hour_7_1170" depart="25235.56" from="-451704783" to="290538999" fromTaz="grid-X17Y6" toTaz="destination-X19Y25" departLane="free" departSpeed="max"/>
    <trip id="hour_7_695" depart="25235.70" from="24793256" to="375714879" fromTaz="fringe-X23Y16" toTaz="fringe-X18Y26" departLane="free" departSpeed="max"/>
    <trip id="hour_7_929" depart="25235.75" from="-326572945" to="-11939532269" fromTaz="fringe-X7Y28" toTaz="grid-X10Y25" departLane="free" departSpeed="max"/>
    <trip id="hour_7_641" depart="25235.85" from="121921459" to="452051334" fromTaz="fringe-X22Y11" toTaz="destination-X7Y1" departLane="free" departSpeed="max"/>
    <trip id="hour_7_23" depart="25235.86" from="164785142" to="452051334" fromTaz="fringe-X11Y4" toTaz="destination-X7Y1" departLane="free" departSpeed="max"/>
    <trip id="hour_7_690" depart="25236.13" from="-24793256" to="452051334" fromTaz="fringe-X23Y16" toTaz="destination-X7Y1" departLane="free" departSpeed="max"/>
    <trip id="hour_7_1190" depart="25236.35" from="451704789" to="-375714879" fromTaz="grid-X17Y6" toTaz="fringe-X18Y26" departLane="free" departSpeed="max"/>
    <trip id="hour_7_184" depart="25236.86" from="24711105" to="375714879" fromTaz="fringe-X16Y26" toTaz="fringe-X18Y26" departLane="free" departSpeed="max"/>
    <trip id="hour_7_2251" depart="25237.00" from="24821181" to="290538999" fromTaz="origin-X4Y30" toTaz="destination-X19Y25" departLane="free" departSpeed="max"/>
    <trip id="hour_7_290" depart="25237.11" from="150270059" to="-479358807" fromTaz="fringe-X16Y26" toTaz="fringe-X22Y14" departLane="free" departSpeed="max"/>
    <trip id="hour_7_1322" depart="25237.22" from="171039413" to="-375714879" fromTaz="grid-X20Y11" toTaz="fringe-X18Y26" departLane="free" departSpeed="max"/>
    <trip id="hour_7_278" depart="25237.27" from="150270059" to="-12968189#1" fromTaz="fringe-X16Y26" toTaz="fringe-X20Y7" departLane="free" departSpeed="max"/>
    <trip id="hour_7_1678" depart="25237.39" from="11939529258" to="452051334" fromTaz="grid-X5Y14" toTaz="destination-X7Y1" departLane="free" departSpeed="max"/>
    <trip id="hour_7_758" depart="25237.58" from="-40425140" to="275056710" fromTaz="fringe-X4Y29" toTaz="destination-X4Y30" departLane="free" departSpeed="max"/>
    <trip id="hour_7_946" depart="25238.12" from="-326572945" to="32912350" fromTaz="fringe-X7Y28" toTaz="grid-X14Y18" departLane="free" departSpeed="max"/>
    <trip id="hour_7_1267" depart="25238.17" from="-40634259" to="275056710" fromTaz="grid-X1Y22" toTaz="destination-X4Y30" departLane="free" departSpeed="max"/>
    <trip id="hour_7_1431" depart="25238.89" from="-158414578" to="452051334" fromTaz="grid-X21Y12" toTaz="destination-X7Y1" departLane="free" departSpeed="max"/>
    <trip id="hour_7_1963" depart="25238.94" from="185260338" to="275056710" fromTaz="origin-X20Y25" toTaz="destination-X4Y30" departLane="free" departSpeed="max"/>
    <trip id="hour_7_297" depart="25239.02" from="24711105" to="-479358807" fromTaz="fringe-X16Y26" toTaz="fringe-X22Y14" departLane="free" departSpeed="max"/>
    <trip id="hour_7_2641" depart="25239.54" from="452051337" to="290538999" fromTaz="origin-X7Y1" toTaz="destination-X19Y25" departLane="free" departSpeed="max"/>
    <trip id="hour_7_190" depart="25239.70" from="150270059" to="7706026" fromTaz="fringe-X16Y26" toTaz="fringe-X18Y9" departLane="free" departSpeed="max"/>
    <trip id="hour_7_2489" depart="25239.97" from="24821181" to="290538999" fromTaz="origin-X4Y30" toTaz="destination-X19Y25" departLane="free" departSpeed="max"/>
    <trip id="hour_7_87" depart="25239.99" from="164785144" to="-12968189#1" fromTaz="fringe-X11Y4" toTaz="fringe-X20Y7" departLane="free" departSpeed="max"/>
    <trip id="hour_7_65" depart="25240.24" from="164785144" to="-52045883" fromTaz="fringe-X11Y4" toTaz="fringe-X10Y1" departLane="free" departSpeed="max"/>
    <trip id="hour_7_564" depart="25240.26" from="958174516" to="275056710" fromTaz="fringe-X1Y23" toTaz="destination-X4Y30" departLane="free" departSpeed="max"/>
    <trip id="hour_7_1686" depart="25240.36" from="47512549" to="275056710" fromTaz="grid-X5Y21" toTaz="destination-X4Y30" departLane="free" departSpeed="max"/>
    <trip id="hour_7_869" depart="25240.97" from="-326572945" to="275056710" fromTaz="fringe-X7Y28" toTaz="destination-X4Y30" departLane="free" departSpeed="max"/>
    <trip id="hour_7_368" depart="25241.04" from="158346347" to="452051334" fromTaz="fringe-X19Y10" toTaz="destination-X7Y1" departLane="free" departSpeed="max"/>
    <trip id="hour_7_1332" depart="25241.06" from="171039413" to="-143075776" fromTaz="grid-X20Y11" toTaz="fringe-X20Y21" departLane="free" departSpeed="max"/>
    <trip id="hour_7_346" depart="25241.59" from="57373256" to="452051334" fromTaz="fringe-X18Y9" toTaz="destination-X7Y1" departLane="free" departSpeed="max"/>
    <trip id="hour_7_1833" depart="25241.83" from="11939530892" to="452051334" fromTaz="grid-X8Y2" toTaz="destination-X7Y1" departLane="free" departSpeed="max"/>
    <trip id="hour_7_2743" depart="25242.07" from="452051337" to="11939541271" fromTaz="origin-X7Y1" toTaz="grid-X6Y14" departLane="free" departSpeed="max"/>
    <trip id="hour_7_1028" depart="25242.59" from="-11939532269" to="275056710" fromTaz="grid-X10Y25" toTaz="destination-X4Y30" departLane="free" departSpeed="max"/>
    <trip id="hour_7_1711" depart="25242.64" from="-4214915" to="275056710" fromTaz="grid-X5Y27" toTaz="destination-X4Y30" departLane="free" departSpeed="max"/>
    <trip id="hour_7_1327" depart="25243.74" from="171024561" to="-185406398" fromTaz="grid-X20Y11" toTaz="fringe-X1Y22" departLane="free" departSpeed="max"/>
    <trip id="hour_7_325" depart="25243.83" from="150270054" to="24793256" fromTaz="fringe-X16Y26" toTaz="fringe-X23Y16" departLane="free" departSpeed="max"/>
    <trip id="hour_7_1147" depart="25244.80" from="-451704803" to="452051334" fromTaz="grid-X16Y6" toTaz="destination-X7Y1" departLane="free" departSpeed="max"/>
    <trip id="hour_7_1302" depart="25244.99" from="184785911" to="290538999" fromTaz="grid-X20Y11" toTaz="destination-X19Y25" departLane="free" departSpeed="max"/>
    <trip id="hour_7_445" depart="25245.53" from="-326780459" to="-134105523" fromTaz="fringe-X19Y22" toTaz="fringe-X24Y16" departLane="free" departSpeed="max"/>
    <trip id="hour_7_2565" depart="25245.59" from="24821181" to="290538999" fromTaz="origin-X4Y30" toTaz="destination-X19Y25" departLane="free" departSpeed="max"/>
    <trip id="hour_7_2310" depart="25246.26" from="24821181" to="290538999" fromTaz="origin-X4Y30" toTaz="destination-X19Y25" departLane="free" departSpeed="max"/>
    <trip id="hour_7_1543" depart="25246.54" from="-931023695" to="275056710" fromTaz="grid-X2Y22" toTaz="destination-X4Y30" departLane="free" departSpeed="max"/>
    <trip id="hour_7_2382" depart="25246.79" from="24821181" to="290538999" fromTaz="origin-X4Y30" toTaz="destination-X19Y25" departLane="free" departSpeed="max"/>
    <trip id="hour_7_1022" depart="25246.85" from="11939537277" to="275056710" fromTaz="grid-X10Y24" toTaz="destination-X4Y30" departLane="free" departSpeed="max"/>
    <trip id="hour_7_2642" depart="25246.85" from="452051337" to="290538999" fromTaz="origin-X7Y1" toTaz="destination-X19Y25" departLane="free" departSpeed="max"/>
    <trip id="hour_7_727" depart="25247.16" from="24793256" to="930774594" fromTaz="fringe-X23Y16" toTaz="grid-X6Y23" departLane="free" departSpeed="max"/>
    <trip id="hour_7_2674" depart="25247.65" from="452051337" to="287201448" fromTaz="origin-X7Y1" toTaz="fringe-X18Y9" departLane="free" departSpeed="max"/>
    <trip id="hour_7_363" depart="25248.32" from="158346014" to="452051334" fromTaz="fringe-X19Y10" toTaz="destination-X7Y1" departLane="free" departSpeed="max"/>
    <trip id="hour_7_792" depart="25248.42" from="40425140" to="275056710" fromTaz="fringe-X4Y29" toTaz="destination-X4Y30" departLane="free" departSpeed="max"/>
    <trip id="hour_7_1347" depart="25248.50" from="11939549661" to="287201448" fromTaz="grid-X20Y7" toTaz="fringe-X18Y9" departLane="free" departSpeed="max"/>
    <trip id="hour_7_2247" depart="25248.60" from="24821181" to="290538999" fromTaz="origin-X4Y30" toTaz="destination-X19Y25" departLane="free" departSpeed="max"/>
    <trip id="hour_7_2183" depart="25249.06" from="185260338" to="143075776" fromTaz="origin-X20Y25" toTaz="fringe-X20Y21" departLane="free" departSpeed="max"/>
    <trip id="hour_7_1847" depart="25249.93" from="-71890079" to="5058806" fromTaz="grid-X8Y2" toTaz="fringe-X18Y9" departLane="free" departSpeed="max"/>
    <trip id="hour_7_972" depart="25249.96" from="326572945" to="134737666" fromTaz="fringe-X7Y28" toTaz="grid-X24Y15" departLane="free" departSpeed="max"/>
    <trip id="hour_7_2574" depart="25250.01" from="24821181" to="375714879" fromTaz="origin-X4Y30" toTaz="fringe-X18Y26" departLane="free" departSpeed="max"/>
    <trip id="hour_7_1291" depart="25250.13" from="-184785911" to="185406398" fromTaz="grid-X20Y10" toTaz="fringe-X1Y22" departLane="free" departSpeed="max"/>
    <trip id="hour_7_1694" depart="25250.15" from="-428779736" to="275056710" fromTaz="grid-X5Y23" toTaz="destination-X4Y30" departLane="free" departSpeed="max"/>
    <trip id="hour_7_918" depart="25250.79" from="326572941" to="-143075780" fromTaz="fringe-X7Y28" toTaz="fringe-X20Y21" departLane="free" departSpeed="max"/>
    <trip id="hour_7_1757" depart="25251.00" from="-11939549483" to="275056710" fromTaz="grid-X6Y15" toTaz="destination-X4Y30" departLane="free" departSpeed="max"/>
    <trip id="hour_7_2407" depart="25251.15" from="24821181" to="290538999" fromTaz="origin-X4Y30" toTaz="destination-X19Y25" departLane="free" departSpeed="max"/>
    <trip id="hour_7_1077" depart="25251.17" from="293517167" to="275056710" fromTaz="grid-X12Y19" toTaz="destination-X4Y30" departLane="free" departSpeed="max"/>
    <trip id="hour_7_495" depart="25251.44" from="326780462" to="275056710" fromTaz="fringe-X19Y23" toTaz="destination-X4Y30" departLane="free" departSpeed="max"/>
    <trip id="hour_7_1405" depart="25251.87" from="331714238" to="158346014" fromTaz="grid-X21Y11" toTaz="fringe-X19Y10" departLane="free" departSpeed="max"/>
    <trip id="hour_7_899" depart="25251.97" from="929240359" to="275056710" fromTaz="fringe-X7Y28" toTaz="destination-X4Y30" departLane="free" departSpeed="max"/>
    <trip id="hour_7_2633" depart="25252.02" from="24821181" to="11939532193" fromTaz="origin-X4Y30" toTaz="grid-X6Y23" departLane="free" departSpeed="max"/>
    <trip id="hour_7_619" depart="25252.35" from="12968189#1" to="452051334" fromTaz="fringe-X20Y7" toTaz="destination-X7Y1" departLane="free" departSpeed="max"/>
    <trip id="hour_7_1367" depart="25252.37" from="171024553" to="375714879" fromTaz="grid-X20Y9" toTaz="fringe-X18Y26" departLane="free" departSpeed="max"/>
    <trip id="hour_7_1259" depart="25252.75" from="11939538446" to="452051334" fromTaz="grid-X19Y9" toTaz="destination-X7Y1" departLane="free" departSpeed="max"/>
    <trip id="hour_7_1545" depart="25252.89" from="11939542629" to="-143075776" fromTaz="grid-X2Y22" toTaz="fringe-X20Y21" departLane="free" departSpeed="max"/>
    <trip id="hour_7_1045" depart="25252.98" from="11939526250" to="275056710" fromTaz="grid-X11Y25" toTaz="destination-X4Y30" departLane="free" departSpeed="max"/>
    <trip id="hour_7_2610" depart="25253.05" from="24821181" to="-11939532466" fromTaz="origin-X4Y30" toTaz="grid-X10Y25" departLane="free" departSpeed="max"/>
    <trip id="hour_7_364" depart="25253.09" from="158347370" to="452051334" fromTaz="fringe-X19Y10" toTaz="destination-X7Y1" departLane="free" departSpeed="max"/>
    <trip id="hour_7_665" depart="25253.10" from="307023793" to="375714879" fromTaz="fringe-X23Y15" toTaz="fringe-X18Y26" departLane="free" departSpeed="max"/>
    <trip id="hour_7_2390" depart="25253.50" from="24821181" to="290538999" fromTaz="origin-X4Y30" toTaz="destination-X19Y25" departLane="free" departSpeed="max"/>
    <trip id="hour_7_1699" depart="25253.94" from="734247283" to="-654765962" fromTaz="grid-X5Y24" toTaz="fringe-X16Y17" departLane="free" departSpeed="max"/>
    <trip id="hour_7_1423" depart="25254.11" from="-1073403974" to="275056710" fromTaz="grid-X21Y12" toTaz="destination-X4Y30" departLane="free" departSpeed="max"/>
    <trip id="hour_7_518" depart="25254.47" from="326780462" to="375714879" fromTaz="fringe-X19Y23" toTaz="fringe-X18Y26" departLane="free" departSpeed="max"/>
    <trip id="hour_7_129" depart="25254.70" from="11939526419" to="290538999" fromTaz="fringe-X16Y26" toTaz="destination-X19Y25" departLane="free" departSpeed="max"/>
    <trip id="hour_7_876" depart="25255.09" from="929240359" to="275056710" fromTaz="fringe-X7Y28" toTaz="destination-X4Y30" departLane="free" departSpeed="max"/>
    <trip id="hour_7_1223" depart="25255.39" from="165378136" to="287201448" fromTaz="grid-X17Y7" toTaz="fringe-X18Y9" departLane="free" departSpeed="max"/>
    <trip id="hour_7_6" depart="25255.65" from="-52045883" to="452051334" fromTaz="fringe-X10Y1" toTaz="destination-X7Y1" departLane="free" departSpeed="max"/>
    <trip id="hour_7_1632" depart="25256.20" from="-11939536990" to="275056710" fromTaz="grid-X4Y23" toTaz="destination-X4Y30" departLane="free" departSpeed="max"/>
    <trip id="hour_7_1702" depart="25256.27" from="-11939535983" to="275056710" fromTaz="grid-X5Y25" toTaz="destination-X4Y30" departLane="free" departSpeed="max"/>
    <trip id="hour_7_778" depart="25256.46" from="-40425140" to="275056710" fromTaz="fringe-X4Y29" toTaz="destination-X4Y30" departLane="free" departSpeed="max"/>
    <trip id="hour_7_584" depart="25256.51" from="4725334" to="143075776" fromTaz="fringe-X20Y25" toTaz="fringe-X20Y21" departLane="free" departSpeed="max"/>
    <trip id="hour_7_2731" depart="25256.81" from="452051337" to="171024553" fromTaz="origin-X7Y1" toTaz="grid-X20Y9" departLane="free" departSpeed="max"/>
    <trip id="hour_7_903" depart="25257.01" from="-326572945" to="275056710" fromTaz="fringe-X7Y28" toTaz="destination-X4Y30" departLane="free" departSpeed="max"/>