<?xml version="1.0" encoding="UTF-8"?>

<routes xmlns:xsi="http://www.w3.org/2001/XMLSchema-instance" xsi:noNamespaceSchemaLocation="http://sumo.dlr.de/xsd/routes_file.xsd">
    <trip id="hour_5_183" depart="18000.81" from="164785142" to="-206359545" fromTaz="fringe-X11Y4" toTaz="grid-X6Y4" departLane="free" departSpeed="max"/>
    <trip id="hour_5_2490" depart="18000.90" from="185260338" to="275056710" fromTaz="origin-X20Y25" toTaz="destination-X4Y30" departLane="free" departSpeed="max"/>
    <trip id="hour_5_137" depart="18001.83" from="87194342" to="11939549994" fromTaz="fringe-X11Y4" toTaz="grid-X4Y10" departLane="free" departSpeed="max"/>
    <trip id="hour_5_1058" depart="18002.92" from="5213455" to="287201448" fromTaz="fringe-X7Y28" toTaz="fringe-X18Y9" departLane="free" departSpeed="max"/>
    <trip id="hour_5_773" depart="18003.08" from="-143075776" to="12968189#1" fromTaz="fringe-X20Y21" toTaz="fringe-X20Y7" departLane="free" departSpeed="max"/>
    <trip id="hour_5_693" depart="18003.14" from="143075780" to="452051334" fromTaz="fringe-X20Y21" toTaz="destination-X7Y1" departLane="free" departSpeed="max"/>
    <trip id="hour_5_928" depart="18003.87" from="24793256" to="275056710" fromTaz="fringe-X23Y16" toTaz="destination-X4Y30" departLane="free" departSpeed="max"/>
    <trip id="hour_5_1585" depart="18004.33" from="-11939531295" to="52045883" fromTaz="grid-X17Y7" toTaz="fringe-X10Y1" departLane="free" departSpeed="max"/>
    <trip id="hour_5_1400" depart="18004.55" from="11939527804" to="87194347" fromTaz="grid-X15Y5" toTaz="fringe-X11Y4" departLane="free" departSpeed="max"/>
    <trip id="hour_5_825" depart="18005.00" from="-121921459" to="452051334" fromTaz="fringe-X22Y11" toTaz="destination-X7Y1" departLane="free" departSpeed="max"/>
    <trip id="hour_5_2017" depart="18005.34" from="-326772923" to="452051334" fromTaz="grid-X23Y16" toTaz="destination-X7Y1" departLane="free" departSpeed="max"/>
    <trip id="hour_5_2553" depart="18005.67" from="185260338" to="275056710" fromTaz="origin-X20Y25" toTaz="destination-X4Y30" departLane="free" departSpeed="max"/>
    <trip id="hour_5_2446" depart="18006.09" from="185260338" to="275056710" fromTaz="origin-X20Y25" toTaz="destination-X4Y30" departLane="free" departSpeed="max"/>
    <trip id="hour_5_306" depart="18006.14" from="237130850" to="-24793256" fromTaz="fringe-X16Y26" toTaz="fringe-X23Y16" departLane="free" departSpeed="max"/>
    <trip id="hour_5_63" depart="18006.36" from="164785142" to="452051334" fromTaz="fringe-X11Y4" toTaz="destination-X7Y1" departLane="free" departSpeed="max"/>
    <trip id="hour_5_488" depart="18006.97" from="326780461" to="12968189#1" fromTaz="fringe-X19Y22" toTaz="fringe-X20Y7" departLane="free" departSpeed="max"/>
    <trip id="hour_5_519" depart="18007.29" from="-326780459" to="479358807" fromTaz="fringe-X19Y22" toTaz="fringe-X22Y14" departLane="free" departSpeed="max"/>
    <trip id="hour_5_2830" depart="18007.36" from="24821181" to="375714879" fromTaz="origin-X4Y30" toTaz="fringe-X18Y26" departLane="free" departSpeed="max"/>
    <trip id="hour_5_2456" depart="18007.37" from="185260338" to="275056710" fromTaz="origin-X20Y25" toTaz="destination-X4Y30" departLane="free" departSpeed="max"/>
    <trip id="hour_5_45" depart="18007.38" from="87194342" to="452051334" fromTaz="fringe-X11Y4" toTaz="destination-X7Y1" departLane="free" departSpeed="max"/>
    <trip id="hour_5_2675" depart="18007.43" from="24821181" to="290538999" fromTaz="origin-X4Y30" toTaz="destination-X19Y25" departLane="free" departSpeed="max"/>
    <trip id="hour_5_122" depart="18007.90" from="164785144" to="452051334" fromTaz="fringe-X11Y4" toTaz="destination-X7Y1" departLane="free" departSpeed="max"/>
    <trip id="hour_5_1535" depart="18008.39" from="451704782" to="237582244" fromTaz="grid-X17Y6" toTaz="fringe-X1Y12" departLane="free" departSpeed="max"/>
    <trip id="hour_5_2266" depart="18008.64" from="-71736664" to="134105523" fromTaz="grid-X8Y2" toTaz="fringe-X24Y16" departLane="free" departSpeed="max"/>
    <trip id="hour_5_523" depart="18008.91" from="326780459" to="-479358807" fromTaz="fringe-X19Y22" toTaz="fringe-X22Y14" departLane="free" departSpeed="max"/>
    <trip id="hour_5_2091" depart="18010.87" from="-351397713" to="-326780459" fromTaz="grid-X5Y20" toTaz="fringe-X19Y22" departLane="free" departSpeed="max"/>
    <trip id="hour_5_238" depart="18011.12" from="24711107" to="290538999" fromTaz="fringe-X16Y26" toTaz="destination-X19Y25" departLane="free" departSpeed="max"/>
    <trip id="hour_5_2806" depart="18011.42" from="24821181" to="290538999" fromTaz="origin-X4Y30" toTaz="destination-X19Y25" departLane="free" departSpeed="max"/>
    <trip id="hour_5_2434" depart="18011.98" from="185260338" to="275056710" fromTaz="origin-X20Y25" toTaz="destination-X4Y30" departLane="free" departSpeed="max"/>
    <trip id="hour_5_677" depart="18012.32" from="-143075776" to="275056710" fromTaz="fringe-X20Y21" toTaz="destination-X4Y30" departLane="free" departSpeed="max"/>
    <trip id="hour_5_2433" depart="18012.48" from="735174825" to="40425140" fromTaz="grid-X9Y24" toTaz="fringe-X4Y29" departLane="free" departSpeed="max"/>
    <trip id="hour_5_2515" depart="18012.68" from="185260338" to="275056710" fromTaz="origin-X20Y25" toTaz="destination-X4Y30" departLane="free" departSpeed="max"/>
    <trip id="hour_5_362" depart="18012.86" from="158346014" to="452051334" fromTaz="fringe-X19Y10" toTaz="destination-X7Y1" departLane="free" departSpeed="max"/>
    <trip id="hour_5_163" depart="18013.05" from="87194342" to="984980766" fromTaz="fringe-X11Y4" toTaz="grid-X5Y7" departLane="free" departSpeed="max"/>
    <trip id="hour_5_2586" depart="18013.10" from="185260338" to="275056710" fromTaz="origin-X20Y25" toTaz="destination-X4Y30" departLane="free" departSpeed="max"/>
    <trip id="hour_5_145" depart="18013.17" from="87194347" to="984980715" fromTaz="fringe-X11Y4" toTaz="grid-X5Y10" departLane="free" departSpeed="max"/>
    <trip id="hour_5_1720" depart="18013.26" from="11939538446" to="290538999" fromTaz="grid-X19Y9" toTaz="destination-X19Y25" departLane="free" departSpeed="max"/>
    <trip id="hour_5_69" depart="18013.56" from="164785142" to="452051334" fromTaz="fringe-X11Y4" toTaz="destination-X7Y1" departLane="free" departSpeed="max"/>
    <trip id="hour_5_2943" depart="18013.93" from="452051337" to="11939531801" fromTaz="origin-X7Y1" toTaz="grid-X22Y13" departLane="free" departSpeed="max"/>
    <trip id="hour_5_1810" depart="18014.30" from="-11939538356" to="275056710" fromTaz="grid-X20Y9" toTaz="destination-X4Y30" departLane="free" departSpeed="max"/>
    <trip id="hour_5_1864" depart="18014.43" from="-122719360" to="57373256" fromTaz="grid-X21Y11" toTaz="fringe-X18Y9" departLane="free" departSpeed="max"/>
    <trip id="hour_5_1875" depart="18014.71" from="122715732" to="158347370" fromTaz="grid-X21Y11" toTaz="fringe-X19Y10" departLane="free" departSpeed="max"/>
    <trip id="hour_5_1257" depart="18014.93" from="5213455" to="-695002984" fromTaz="fringe-X7Y28" toTaz="grid-X20Y7" departLane="free" departSpeed="max"/>
    <trip id="hour_5_1487" depart="18015.11" from="-451704786" to="452051334" fromTaz="grid-X17Y6" toTaz="destination-X7Y1" departLane="free" departSpeed="max"/>
    <trip id="hour_5_2423" depart="18015.14" from="735174816" to="275056710" fromTaz="grid-X9Y24" toTaz="destination-X4Y30" departLane="free" departSpeed="max"/>
    <trip id="hour_5_1616" depart="18015.17" from="-346397315" to="37850228" fromTaz="grid-X17Y7" toTaz="fringe-X7Y0" departLane="free" departSpeed="max"/>
    <trip id="hour_5_1016" depart="18015.27" from="40425140" to="-26619947" fromTaz="fringe-X4Y29" toTaz="grid-X5Y27" departLane="free" departSpeed="max"/>
    <trip id="hour_5_1009" depart="18015.75" from="40425140" to="275056710" fromTaz="fringe-X4Y29" toTaz="destination-X4Y30" departLane="free" departSpeed="max"/>
    <trip id="hour_5_2328" depart="18015.90" from="155094215" to="375714879" fromTaz="grid-X8Y3" toTaz="fringe-X18Y26" departLane="free" departSpeed="max"/>
    <trip id="hour_5_1273" depart="18016.08" from="154716118" to="-11939524174" fromTaz="fringe-X7Y28" toTaz="grid-X4Y28" departLane="free" departSpeed="max"/>
    <trip id="hour_5_1877" depart="18016.29" from="122715732" to="12968189#1" fromTaz="grid-X21Y11" toTaz="fringe-X20Y7" departLane="free" departSpeed="max"/>
    <trip id="hour_5_2669" depart="18016.66" from="24821181" to="290538999" fromTaz="origin-X4Y30" toTaz="destination-X19Y25" departLane="free" departSpeed="max"/>
    <trip id="hour_5_433" depart="18017.18" from="326780459" to="452051334" fromTaz="fringe-X19Y22" toTaz="destination-X7Y1" departLane="free" departSpeed="max"/>
    <trip id="hour_5_110" depart="18017.50" from="87194342" to="452051334" fromTaz="fringe-X11Y4" toTaz="destination-X7Y1" departLane="free" departSpeed="max"/>
    <trip id="hour_5_471" depart="18017.68" from="326780461" to="158346347" fromTaz="fringe-X19Y22" toTaz="fringe-X19Y10" departLane="free" departSpeed="max"/>
    <trip id="hour_5_29" depart="18018.13" from="164785142" to="452051334" fromTaz="fringe-X11Y4" toTaz="destination-X7Y1" departLane="free" departSpeed="max"/>
    <trip id="hour_5_214" depart="18018.68" from="164785144" to="11939544848" fromTaz="fringe-X11Y4" toTaz="grid-X8Y3" departLane="free" departSpeed="max"/>
    <trip id="hour_5_718" depart="18018.97" from="143075780" to="375714879" fromTaz="fringe-X20Y21" toTaz="fringe-X18Y26" departLane="free" departSpeed="max"/>
    <trip id="hour_5_1823" depart="18019.71" from="171024553" to="375714879" fromTaz="grid-X20Y9" toTaz="fringe-X18Y26" departLane="free" departSpeed="max"/>
    <trip id="hour_5_2303" depart="18019.73" from="71890080" to="452051334" fromTaz="grid-X8Y3" toTaz="destination-X7Y1" departLane="free" departSpeed="max"/>
    <trip id="hour_5_2256" depart="18019.83" from="987109374" to="452051334" fromTaz="grid-X8Y2" toTaz="destination-X7Y1" departLane="free" departSpeed="max"/>
    <trip id="hour_5_2438" depart="18020.18" from="185260338" to="275056710" fromTaz="origin-X20Y25" toTaz="destination-X4Y30" departLane="free" departSpeed="max"/>
    <trip id="hour_5_585" depart="18020.20" from="-326780459" to="695002984" fromTaz="fringe-X19Y22" toTaz="grid-X20Y7" departLane="free" departSpeed="max"/>
    <trip id="hour_5_1924" depart="18021.20" from="-11939535807" to="158346347" fromTaz="grid-X21Y12" toTaz="fringe-X19Y10" departLane="free" departSpeed="max"/>
    <trip id="hour_5_2574" depart="18021.41" from="185260338" to="275056710" fromTaz="origin-X20Y25" toTaz="destination-X4Y30" departLane="free" departSpeed="max"/>
    <trip id="hour_5_2932" depart="18021.44" from="452051337" to="-11939528671" fromTaz="origin-X7Y1" toTaz="grid-X19Y9" departLane="free" departSpeed="max"/>
    <trip id="hour_5_1035" depart="18022.28" from="326572945" to="275056710" fromTaz="fringe-X7Y28" toTaz="destination-X4Y30" departLane="free" departSpeed="max"/>
    <trip id="hour_5_2000" depart="18022.64" from="-11939535125" to="452051334" fromTaz="grid-X23Y14" toTaz="destination-X7Y1" departLane="free" departSpeed="max"/>
    <trip id="hour_5_2810" depart="18022.69" from="24821181" to="290538999" fromTaz="origin-X4Y30" toTaz="destination-X19Y25" departLane="free" departSpeed="max"/>
    <trip id="hour_5_618" depart="18023.70" from="-10666718" to="275056710" fromTaz="fringe-X19Y23" toTaz="destination-X4Y30" departLane="free" departSpeed="max"/>
    <trip id="hour_5_1088" depart="18023.89" from="326572941" to="-326780459" fromTaz="fringe-X7Y28" toTaz="fringe-X19Y22" departLane="free" departSpeed="max"/>
    <trip id="hour_5_1547" depart="18024.00" from="-451704782" to="37850228" fromTaz="grid-X17Y6" toTaz="fringe-X7Y0" departLane="free" departSpeed="max"/>
    <trip id="hour_5_1106" depart="18024.17" from="326572941" to="326780462" fromTaz="fringe-X7Y28" toTaz="fringe-X19Y23" departLane="free" departSpeed="max"/>
    <trip id="hour_5_1334" depart="18024.44" from="-11939544126" to="-958174516" fromTaz="grid-X11Y25" toTaz="fringe-X1Y23" departLane="free" departSpeed="max"/>
    <trip id="hour_5_477" depart="18024.80" from="-326780459" to="-12968189#1" fromTaz="fringe-X19Y22" toTaz="fringe-X20Y7" departLane="free" departSpeed="max"/>
    <trip id="hour_5_602" depart="18024.98" from="326780461" to="134737666" fromTaz="fringe-X19Y22" toTaz="grid-X24Y15" departLane="free" departSpeed="max"/>
    <trip id="hour_5_649" depart="18025.91" from="958174516" to="275056710" fromTaz="fringe-X1Y23" toTaz="destination-X4Y30" departLane="free" departSpeed="max"/>
    <trip id="hour_5_1168" depart="18026.98" from="929240359" to="-12968189#1" fromTaz="fringe-X7Y28" toTaz="fringe-X20Y7" departLane="free" departSpeed="max"/>
    <trip id="hour_5_60" depart="18027.48" from="164785142" to="452051334" fromTaz="fringe-X11Y4" toTaz="destination-X7Y1" departLane="free" departSpeed="max"/>
    <trip id="hour_5_2613" depart="18027.65" from="185260338" to="275056710" fromTaz="origin-X20Y25" toTaz="destination-X4Y30" departLane="free" departSpeed="max"/>
    <trip id="hour_5_1448" depart="18028.47" from="-451704789" to="452051334" fromTaz="grid-X16Y6" toTaz="destination-X7Y1" departLane="free" departSpeed="max"/>
    <trip id="hour_5_1515" depart="18028.53" from="451704782" to="452051334" fromTaz="grid-X17Y6" toTaz="destination-X7Y1" departLane="free" departSpeed="max"/>
    <trip id="hour_5_1867" depart="18028.77" from="-122715732" to="158346347" fromTaz="grid-X21Y11" toTaz="fringe-X19Y10" departLane="free" departSpeed="max"/>
    <trip id="hour_5_1271" depart="18028.82" from="-326572945" to="28981425" fromTaz="fringe-X7Y28" toTaz="grid-X4Y26" departLane="free" departSpeed="max"/>
    <trip id="hour_5_1100" depart="18029.50" from="929240359" to="326780461" fromTaz="fringe-X7Y28" toTaz="fringe-X19Y22" departLane="free" departSpeed="max"/>
    <trip id="hour_5_757" depart="18029.82" from="-143075776" to="10666718" fromTaz="fringe-X20Y21" toTaz="fringe-X19Y23" departLane="free" departSpeed="max"/>
    <trip id="hour_5_2269" depart="18029.99" from="11939532048" to="154716118" fromTaz="grid-X8Y2" toTaz="fringe-X7Y28" departLane="free" departSpeed="max"/>
    <trip id="hour_5_2696" depart="18030.10" from="24821181" to="290538999" fromTaz="origin-X4Y30" toTaz="destination-X19Y25" departLane="free" departSpeed="max"/>
    <trip id="hour_5_2727" depart="18030.18" from="24821181" to="290538999" fromTaz="origin-X4Y30" toTaz="destination-X19Y25" departLane="free" departSpeed="max"/>
    <trip id="hour_5_84" depart="18030.86" from="164785142" to="452051334" fromTaz="fringe-X11Y4" toTaz="destination-X7Y1" departLane="free" departSpeed="max"/>
    <trip id="hour_5_2668" depart="18030.87" from="24821181" to="290538999" fromTaz="origin-X4Y30" toTaz="destination-X19Y25" departLane="free" departSpeed="max"/>
    <trip id="hour_5_508" depart="18030.89" from="326780459" to="-479358807" fromTaz="fringe-X19Y22" toTaz="fringe-X22Y14" departLane="free" departSpeed="max"/>
    <trip id="hour_5_2612" depart="18031.13" from="185260338" to="275056710" fromTaz="origin-X20Y25" toTaz="destination-X4Y30" departLane="free" departSpeed="max"/>
    <trip id="hour_5_2031" depart="18031.33" from="138757420" to="452051334" fromTaz="grid-X24Y14" toTaz="destination-X7Y1" departLane="free" departSpeed="max"/>
    <trip id="hour_5_248" depart="18031.69" from="237130850" to="275056710" fromTaz="fringe-X16Y26" toTaz="destination-X4Y30" departLane="free" departSpeed="max"/>
    <trip id="hour_5_1806" depart="18031.73" from="11939549659" to="452051334" fromTaz="grid-X20Y7" toTaz="destination-X7Y1" departLane="free" departSpeed="max"/>
    <trip id="hour_5_2003" depart="18031.76" from="1059064454" to="452051334" fromTaz="grid-X23Y14" toTaz="destination-X7Y1" departLane="free" departSpeed="max"/>
    <trip id="hour_5_2640" depart="18031.88" from="24821181" to="290538999" fromTaz="origin-X4Y30" toTaz="destination-X19Y25" departLane="free" departSpeed="max"/>
    <trip id="hour_5_2782" depart="18032.76" from="24821181" to="290538999" fromTaz="origin-X4Y30" toTaz="destination-X19Y25" departLane="free" departSpeed="max"/>
    <trip id="hour_5_1847" depart="18032.84" from="-171019100" to="452051334" fromTaz="grid-X21Y11" toTaz="destination-X7Y1" departLane="free" departSpeed="max"/>
    <trip id="hour_5_2130" depart="18032.95" from="-4214915" to="326780459" fromTaz="grid-X5Y27" toTaz="fringe-X19Y22" departLane="free" departSpeed="max"/>
    <trip id="hour_5_140" depart="18033.22" from="87194342" to="-11939549994" fromTaz="fringe-X11Y4" toTaz="grid-X4Y10" departLane="free" departSpeed="max"/>
    <trip id="hour_5_233" depart="18033.49" from="326594940" to="290538999" fromTaz="fringe-X16Y26" toTaz="destination-X19Y25" departLane="free" departSpeed="max"/>
    <trip id="hour_5_1019" depart="18033.50" from="154716118" to="290538999" fromTaz="fringe-X7Y28" toTaz="destination-X19Y25" departLane="free" departSpeed="max"/>
    <trip id="hour_5_486" depart="18033.79" from="-326780459" to="-12968189#1" fromTaz="fringe-X19Y22" toTaz="fringe-X20Y7" departLane="free" departSpeed="max"/>
    <trip id="hour_5_1581" depart="18034.45" from="-346397313" to="452051334" fromTaz="grid-X17Y7" toTaz="destination-X7Y1" departLane="free" departSpeed="max"/>
    <trip id="hour_5_1631" depart="18035.00" from="-11939523819" to="452051334" fromTaz="grid-X18Y7" toTaz="destination-X7Y1" departLane="free" departSpeed="max"/>
    <trip id="hour_5_1617" depart="18035.18" from="-451704791" to="37850228" fromTaz="grid-X17Y7" toTaz="fringe-X7Y0" departLane="free" departSpeed="max"/>
    <trip id="hour_5_1843" depart="18035.22" from="171019100" to="452051334" fromTaz="grid-X21Y11" toTaz="destination-X7Y1" departLane="free" departSpeed="max"/>
    <trip id="hour_5_1208" depart="18035.56" from="154716118" to="307024527" fromTaz="fringe-X7Y28" toTaz="fringe-X23Y15" departLane="free" departSpeed="max"/>
    <trip id="hour_5_709" depart="18035.70" from="143075776" to="11939526419" fromTaz="fringe-X20Y21" toTaz="fringe-X16Y26" departLane="free" departSpeed="max"/>
    <trip id="hour_5_23" depart="18035.86" from="164785142" to="452051334" fromTaz="fringe-X11Y4" toTaz="destination-X7Y1" departLane="free" departSpeed="max"/>
    <trip id="hour_5_2760" depart="18035.90" from="24821181" to="290538999" fromTaz="origin-X4Y30" toTaz="destination-X19Y25" departLane="free" departSpeed="max"/>
    <trip id="hour_5_704" depart="18036.13" from="143075780" to="452051334" fromTaz="fringe-X20Y21" toTaz="destination-X7Y1" departLane="free" departSpeed="max"/>
    <trip id="hour_5_1228" depart="18036.35" from="326572945" to="134105523" fromTaz="fringe-X7Y28" toTaz="fringe-X24Y16" departLane="free" departSpeed="max"/>
    <trip id="hour_5_788" depart="18036.64" from="143075776" to="11939526280" fromTaz="fringe-X20Y21" toTaz="grid-X18Y7" departLane="free" departSpeed="max"/>
    <trip id="hour_5_253" depart="18036.69" from="150270054" to="-375714879" fromTaz="fringe-X16Y26" toTaz="fringe-X18Y26" departLane="free" departSpeed="max"/>
    <trip id="hour_5_2243" depart="18037.00" from="71736662" to="452051334" fromTaz="grid-X8Y2" toTaz="destination-X7Y1" departLane="free" departSpeed="max"/>
    <trip id="hour_5_1762" depart="18037.17" from="-184785911" to="326780462" fromTaz="grid-X20Y10" toTaz="fringe-X19Y23" departLane="free" departSpeed="max"/>
    <trip id="hour_5_1342" depart="18037.22" from="214317426" to="275056710" fromTaz="grid-X11Y26" toTaz="destination-X4Y30" departLane="free" departSpeed="max"/>
    <trip id="hour_5_2176" depart="18037.22" from="-929258351" to="290538999" fromTaz="grid-X6Y21" toTaz="destination-X19Y25" departLane="free" departSpeed="max"/>
    <trip id="hour_5_285" depart="18037.27" from="150270059" to="-326780459" fromTaz="fringe-X16Y26" toTaz="fringe-X19Y22" departLane="free" departSpeed="max"/>
    <trip id="hour_5_507" depart="18037.70" from="326780461" to="-479358807" fromTaz="fringe-X19Y22" toTaz="fringe-X22Y14" departLane="free" departSpeed="max"/>
    <trip id="hour_5_1299" depart="18037.71" from="11939537277" to="275056710" fromTaz="grid-X10Y24" toTaz="destination-X4Y30" departLane="free" departSpeed="max"/>
    <trip id="hour_5_2763" depart="18037.87" from="24821181" to="290538999" fromTaz="origin-X4Y30" toTaz="destination-X19Y25" departLane="free" departSpeed="max"/>
    <trip id="hour_5_2828" depart="18037.96" from="24821181" to="290538999" fromTaz="origin-X4Y30" toTaz="destination-X19Y25" departLane="free" departSpeed="max"/>
    <trip id="hour_5_962" depart="18038.12" from="-24793256" to="-375714879" fromTaz="fringe-X23Y16" toTaz="fringe-X18Y26" departLane="free" departSpeed="max"/>
    <trip id="hour_5_1291" depart="18038.17" from="-11939545694" to="452051334" fromTaz="grid-X10Y2" toTaz="destination-X7Y1" departLane="free" departSpeed="max"/>
    <trip id="hour_5_1450" depart="18038.89" from="-22997466" to="452051334" fromTaz="grid-X16Y6" toTaz="destination-X7Y1" departLane="free" departSpeed="max"/>
    <trip id="hour_5_1623" depart="18039.37" from="165378034" to="452051334" fromTaz="grid-X18Y7" toTaz="destination-X7Y1" departLane="free" departSpeed="max"/>
    <trip id="hour_5_2622" depart="18039.54" from="185260338" to="326780459" fromTaz="origin-X20Y25" toTaz="fringe-X19Y22" departLane="free" departSpeed="max"/>
    <trip id="hour_5_198" depart="18039.70" from="164785142" to="71800124" fromTaz="fringe-X11Y4" toTaz="grid-X7Y3" departLane="free" departSpeed="max"/>
    <trip id="hour_5_2459" depart="18039.97" from="185260338" to="275056710" fromTaz="origin-X20Y25" toTaz="destination-X4Y30" departLane="free" departSpeed="max"/>
    <trip id="hour_5_581" depart="18040.26" from="326780461" to="12968173" fromTaz="fringe-X19Y22" toTaz="grid-X19Y8" departLane="free" departSpeed="max"/>
    <trip id="hour_5_884" depart="18040.97" from="307023793" to="452051334" fromTaz="fringe-X23Y15" toTaz="destination-X7Y1" departLane="free" departSpeed="max"/>
    <trip id="hour_5_375" depart="18041.04" from="158346347" to="452051334" fromTaz="fringe-X19Y10" toTaz="destination-X7Y1" departLane="free" departSpeed="max"/>
    <trip id="hour_5_1352" depart="18041.06" from="11939541053" to="452051334" fromTaz="grid-X11Y3" toTaz="destination-X7Y1" departLane="free" departSpeed="max"/>
    <trip id="hour_5_1893" depart="18041.83" from="1073403974" to="452051334" fromTaz="grid-X21Y12" toTaz="destination-X7Y1" departLane="free" departSpeed="max"/>
    <trip id="hour_5_1046" depart="18042.10" from="-326572945" to="275056710" fromTaz="fringe-X7Y28" toTaz="destination-X4Y30" departLane="free" departSpeed="max"/>
    <trip id="hour_5_77" depart="18042.16" from="87194347" to="452051334" fromTaz="fringe-X11Y4" toTaz="destination-X7Y1" departLane="free" departSpeed="max"/>
    <trip id="hour_5_1136" depart="18043.33" from="929240359" to="143075776" fromTaz="fringe-X7Y28" toTaz="fringe-X20Y21" departLane="free" departSpeed="max"/>
    <trip id="hour_5_1347" depart="18043.74" from="11939525406" to="958174516" fromTaz="grid-X11Y26" toTaz="fringe-X1Y23" departLane="free" departSpeed="max"/>
    <trip id="hour_5_329" depart="18043.83" from="287201448" to="452051334" fromTaz="fringe-X18Y9" toTaz="destination-X7Y1" departLane="free" departSpeed="max"/>
    <trip id="hour_5_678" depart="18044.26" from="143075776" to="275056710" fromTaz="fringe-X20Y21" toTaz="destination-X4Y30" departLane="free" departSpeed="max"/>
    <trip id="hour_5_1323" depart="18044.99" from="143945932" to="275056710" fromTaz="grid-X11Y19" toTaz="destination-X4Y30" departLane="free" departSpeed="max"/>
    <trip id="hour_5_2535" depart="18045.59" from="185260338" to="275056710" fromTaz="origin-X20Y25" toTaz="destination-X4Y30" departLane="free" departSpeed="max"/>
    <trip id="hour_5_2044" depart="18045.60" from="-11939544540" to="275056710" fromTaz="grid-X2Y25" toTaz="destination-X4Y30" departLane="free" departSpeed="max"/>
    <trip id="hour_5_1709" depart="18046.05" from="-166417995" to="452051334" fromTaz="grid-X19Y8" toTaz="destination-X7Y1" departLane="free" departSpeed="max"/>
    <trip id="hour_5_2294" depart="18046.26" from="71890079" to="452051334" fromTaz="grid-X8Y3" toTaz="destination-X7Y1" departLane="free" departSpeed="max"/>
    <trip id="hour_5_2758" depart="18046.82" from="24821181" to="290538999" fromTaz="origin-X4Y30" toTaz="destination-X19Y25" departLane="free" departSpeed="max"/>
    <trip id="hour_5_2623" depart="18046.85" from="185260338" to="326780459" fromTaz="origin-X20Y25" toTaz="fringe-X19Y22" departLane="free" departSpeed="max"/>
    <trip id="hour_5_742" depart="18047.16" from="-143075780" to="7706026" fromTaz="fringe-X20Y21" toTaz="fringe-X18Y9" departLane="free" departSpeed="max"/>
    <trip id="hour_5_2654" depart="18047.65" from="24821181" to="290538999" fromTaz="origin-X4Y30" toTaz="destination-X19Y25" departLane="free" departSpeed="max"/>
    <trip id="hour_5_370" depart="18048.32" from="158346014" to="452051334" fromTaz="fringe-X19Y10" toTaz="destination-X7Y1" departLane="free" departSpeed="max"/>
    <trip id="hour_5_805" depart="18048.42" from="4725334" to="326780459" fromTaz="fringe-X20Y25" toTaz="fringe-X19Y22" departLane="free" departSpeed="max"/>
    <trip id="hour_5_1367" depart="18048.50" from="11939549119" to="275056710" fromTaz="grid-X12Y26" toTaz="destination-X4Y30" departLane="free" departSpeed="max"/>
    <trip id="hour_5_1839" depart="18048.55" from="-133951992" to="452051334" fromTaz="grid-X21Y11" toTaz="destination-X7Y1" departLane="free" departSpeed="max"/>
    <trip id="hour_5_2239" depart="18048.60" from="-43846138" to="452051334" fromTaz="grid-X8Y2" toTaz="destination-X7Y1" departLane="free" departSpeed="max"/>
    <trip id="hour_5_567" depart="18048.84" from="326780459" to="-134105523" fromTaz="fringe-X19Y22" toTaz="fringe-X24Y16" departLane="free" departSpeed="max"/>
    <trip id="hour_5_662" depart="18049.01" from="143075776" to="290538999" fromTaz="fringe-X20Y21" toTaz="destination-X19Y25" departLane="free" departSpeed="max"/>
    <trip id="hour_5_2157" depart="18049.22" from="11939540310" to="654765962" fromTaz="grid-X6Y18" toTaz="fringe-X16Y17" departLane="free" departSpeed="max"/>
    <trip id="hour_5_2658" depart="18049.53" from="24821181" to="290538999" fromTaz="origin-X4Y30" toTaz="destination-X19Y25" departLane="free" departSpeed="max"/>
    <trip id="hour_5_1921" depart="18049.85" from="-158414578" to="158347370" fromTaz="grid-X21Y12" toTaz="fringe-X19Y10" departLane="free" departSpeed="max"/>
    <trip id="hour_5_2626" depart="18049.86" from="24821181" to="290538999" fromTaz="origin-X4Y30" toTaz="destination-X19Y25" departLane="free" departSpeed="max"/>
    <trip id="hour_5_1907" depart="18049.93" from="1009757382" to="375714879" fromTaz="grid-X21Y12" toTaz="fringe-X18Y26" departLane="free" departSpeed="max"/>
    <trip id="hour_5_2544" depart="18050.01" from="185260338" to="275056710" fromTaz="origin-X20Y25" toTaz="destination-X4Y30" departLane="free" departSpeed="max"/>
    <trip id="hour_5_931" depart="18050.79" from="24793256" to="275056710" fromTaz="fringe-X23Y16" toTaz="destination-X4Y30" departLane="free" departSpeed="max"/>
    <trip id="hour_5_2332" depart="18050.82" from="155094215" to="5058806" fromTaz="grid-X8Y3" toTaz="fringe-X18Y9" departLane="free" departSpeed="max"/>
    <trip id="hour_5_1803" depart="18051.00" from="-400567504" to="452051334" fromTaz="grid-X20Y7" toTaz="destination-X7Y1" departLane="free" departSpeed="max"/>
    <trip id="hour_5_2385" depart="18051.15" from="543379923" to="452051334" fromTaz="grid-X9Y2" toTaz="destination-X7Y1" departLane="free" departSpeed="max"/>
    <trip id="hour_5_1102" depart="18051.17" from="-326572945" to="-10666718" fromTaz="fringe-X7Y28" toTaz="fringe-X19Y23" departLane="free" departSpeed="max"/>
    <trip id="hour_5_501" depart="18051.44" from="326780461" to="12968189#1" fromTaz="fringe-X19Y22" toTaz="fringe-X20Y7" departLane="free" departSpeed="max"/>
    <trip id="hour_5_913" depart="18051.97" from="307023793" to="158347370" fromTaz="fringe-X23Y15" toTaz="fringe-X19Y10" departLane="free" departSpeed="max"/>
    <trip id="hour_5_2874" depart="18052.03" from="452051337" to="-375714879" fromTaz="origin-X7Y1" toTaz="fringe-X18Y26" departLane="free" departSpeed="max"/>
    <trip id="hour_5_990" depart="18052.25" from="134105523" to="452051334" fromTaz="fringe-X24Y16" toTaz="destination-X7Y1" departLane="free" departSpeed="max"/>
    <trip id="hour_5_1462" depart="18052.27" from="-11939541121" to="452051334" fromTaz="grid-X16Y6" toTaz="destination-X7Y1" departLane="free" departSpeed="max"/>
    <trip id="hour_5_633" depart="18052.35" from="-185406398" to="5058806" fromTaz="fringe-X1Y22" toTaz="fringe-X18Y9" departLane="free" departSpeed="max"/>
    <trip id="hour_5_2916" depart="18052.39" from="452051337" to="-134105523" fromTaz="origin-X7Y1" toTaz="fringe-X24Y16" departLane="free" departSpeed="max"/>
    <trip id="hour_5_2904" depart="18052.62" from="452051337" to="307024526" fromTaz="origin-X7Y1" toTaz="fringe-X23Y15" departLane="free" departSpeed="max"/>
    <trip id="hour_5_1284" depart="18052.75" from="-326572945" to="11939523989" fromTaz="fringe-X7Y28" toTaz="grid-X7Y23" departLane="free" departSpeed="max"/>
    <trip id="hour_5_1252" depart="18052.77" from="154716118" to="12968147" fromTaz="fringe-X7Y28" toTaz="grid-X19Y8" departLane="free" departSpeed="max"/>
    <trip id="hour_5_1067" depart="18052.98" from="929240359" to="4414008" fromTaz="fringe-X7Y28" toTaz="fringe-X19Y10" departLane="free" departSpeed="max"/>
    <trip id="hour_5_371" depart="18053.09" from="158347370" to="452051334" fromTaz="fringe-X19Y10" toTaz="destination-X7Y1" departLane="free" departSpeed="max"/>
    <trip id="hour_5_179" depart="18053.48" from="87194347" to="987011914" fromTaz="fringe-X11Y4" toTaz="grid-X6Y3" departLane="free" departSpeed="max"/>
    <trip id="hour_5_573" depart="18053.69" from="326780459" to="11939541963" fromTaz="fringe-X19Y22" toTaz="grid-X18Y7" departLane="free" departSpeed="max"/>