<?xml version="1.0" encoding="UTF-8"?>

<routes xmlns:xsi="http://www.w3.org/2001/XMLSchema-instance" xsi:noNamespaceSchemaLocation="http://sumo.dlr.de/xsd/routes_file.xsd">
    <trip id="hour_8_1983" depart="28800.19" from="-11939533350" to="237582244" fromTaz="grid-X6Y16" toTaz="fringe-X1Y12" departLane="free" departSpeed="max"/>
    <trip id="hour_8_2418" depart="28800.90" from="185260338" to="275056710" fromTaz="origin-X20Y25" toTaz="destination-X4Y30" departLane="free" departSpeed="max"/>
    <trip id="hour_8_615" depart="28800.90" from="143075776" to="-11939550589" fromTaz="fringe-X20Y21" toTaz="grid-X24Y15" departLane="free" departSpeed="max"/>
    <trip id="hour_8_654" depart="28801.08" from="12968189#1" to="45569875" fromTaz="fringe-X20Y7" toTaz="grid-X10Y1" departLane="free" departSpeed="max"/>
    <trip id="hour_8_840" depart="28801.28" from="-40425140" to="654765962" fromTaz="fringe-X4Y29" toTaz="fringe-X16Y17" departLane="free" departSpeed="max"/>
    <trip id="hour_8_1678" depart="28801.55" from="11939539921" to="275056710" fromTaz="grid-X3Y28" toTaz="destination-X4Y30" departLane="free" departSpeed="max"/>
    <trip id="hour_8_124" depart="28801.83" from="87194342" to="43846156" fromTaz="fringe-X11Y4" toTaz="grid-X9Y2" departLane="free" departSpeed="max"/>
    <trip id="hour_8_728" depart="28803.08" from="-24793256" to="307024527" fromTaz="fringe-X23Y16" toTaz="fringe-X23Y15" departLane="free" departSpeed="max"/>
    <trip id="hour_8_2191" depart="28803.69" from="-11939527555" to="24793256" fromTaz="grid-X8Y1" toTaz="fringe-X23Y16" departLane="free" departSpeed="max"/>
    <trip id="hour_8_781" depart="28805.00" from="-40425140" to="275056710" fromTaz="fringe-X4Y29" toTaz="destination-X4Y30" departLane="free" departSpeed="max"/>
    <trip id="hour_8_1931" depart="28805.34" from="-366950473" to="158346347" fromTaz="grid-X5Y4" toTaz="fringe-X19Y10" departLane="free" departSpeed="max"/>
    <trip id="hour_8_2481" depart="28805.67" from="185260338" to="275056710" fromTaz="origin-X20Y25" toTaz="destination-X4Y30" departLane="free" departSpeed="max"/>
    <trip id="hour_8_2378" depart="28806.09" from="11939546966" to="275056710" fromTaz="grid-X9Y24" toTaz="destination-X4Y30" departLane="free" departSpeed="max"/>
    <trip id="hour_8_291" depart="28806.14" from="375714879" to="307024527" fromTaz="fringe-X18Y26" toTaz="fringe-X23Y15" departLane="free" departSpeed="max"/>
    <trip id="hour_8_1658" depart="28806.35" from="11939529885" to="275056710" fromTaz="grid-X3Y27" toTaz="destination-X4Y30" departLane="free" departSpeed="max"/>
    <trip id="hour_8_57" depart="28806.36" from="164785142" to="52045883" fromTaz="fringe-X11Y4" toTaz="fringe-X10Y1" departLane="free" departSpeed="max"/>
    <trip id="hour_8_1976" depart="28806.40" from="-11939533140" to="654765962" fromTaz="grid-X6Y16" toTaz="fringe-X16Y17" departLane="free" departSpeed="max"/>
    <trip id="hour_8_1469" depart="28806.67" from="11939534800" to="-52045883" fromTaz="grid-X24Y15" toTaz="fringe-X10Y1" departLane="free" departSpeed="max"/>
    <trip id="hour_8_464" depart="28806.97" from="958174516" to="275056710" fromTaz="fringe-X1Y23" toTaz="destination-X4Y30" departLane="free" departSpeed="max"/>
    <trip id="hour_8_494" depart="28807.29" from="-143075780" to="290538999" fromTaz="fringe-X20Y21" toTaz="destination-X19Y25" departLane="free" departSpeed="max"/>
    <trip id="hour_8_2387" depart="28807.37" from="735174820" to="-237582244" fromTaz="grid-X9Y24" toTaz="fringe-X1Y12" departLane="free" departSpeed="max"/>
    <trip id="hour_8_39" depart="28807.38" from="87194342" to="452051334" fromTaz="fringe-X11Y4" toTaz="destination-X7Y1" departLane="free" departSpeed="max"/>
    <trip id="hour_8_2604" depart="28807.43" from="185260338" to="275056710" fromTaz="origin-X20Y25" toTaz="destination-X4Y30" departLane="free" departSpeed="max"/>
    <trip id="hour_8_1955" depart="28807.55" from="-42484296" to="-237582244" fromTaz="grid-X6Y14" toTaz="fringe-X1Y12" departLane="free" departSpeed="max"/>
    <trip id="hour_8_109" depart="28807.90" from="164785144" to="-11939534361" fromTaz="fringe-X11Y4" toTaz="grid-X7Y2" departLane="free" departSpeed="max"/>
    <trip id="hour_8_2097" depart="28808.03" from="-711108807" to="290538999" fromTaz="grid-X7Y17" toTaz="destination-X19Y25" departLane="free" departSpeed="max"/>
    <trip id="hour_8_498" depart="28808.91" from="143075776" to="290538999" fromTaz="fringe-X20Y21" toTaz="destination-X19Y25" departLane="free" departSpeed="max"/>
    <trip id="hour_8_1884" depart="28809.29" from="453325903" to="-237582244" fromTaz="grid-X5Y26" toTaz="fringe-X1Y12" departLane="free" departSpeed="max"/>
    <trip id="hour_8_1842" depart="28809.42" from="11939524657" to="-654765962" fromTaz="grid-X5Y22" toTaz="fringe-X16Y17" departLane="free" departSpeed="max"/>
    <trip id="hour_8_1854" depart="28809.92" from="11939525316" to="654765962" fromTaz="grid-X5Y23" toTaz="fringe-X16Y17" departLane="free" departSpeed="max"/>
    <trip id="hour_8_2734" depart="28811.42" from="24821181" to="290538999" fromTaz="origin-X4Y30" toTaz="destination-X19Y25" departLane="free" departSpeed="max"/>
    <trip id="hour_8_1785" depart="28811.45" from="845217103" to="452051334" fromTaz="grid-X5Y10" toTaz="destination-X7Y1" departLane="free" departSpeed="max"/>
    <trip id="hour_8_1428" depart="28812.02" from="-4814772" to="24793256" fromTaz="grid-X22Y13" toTaz="fringe-X23Y16" departLane="free" departSpeed="max"/>
    <trip id="hour_8_2365" depart="28812.48" from="735174825" to="275056710" fromTaz="grid-X9Y24" toTaz="destination-X4Y30" departLane="free" departSpeed="max"/>
    <trip id="hour_8_2443" depart="28812.68" from="185260338" to="275056710" fromTaz="origin-X20Y25" toTaz="destination-X4Y30" departLane="free" departSpeed="max"/>
    <trip id="hour_8_295" depart="28812.93" from="375714879" to="8896380" fromTaz="fringe-X18Y26" toTaz="fringe-X23Y15" departLane="free" departSpeed="max"/>
    <trip id="hour_8_2514" depart="28813.10" from="185260338" to="275056710" fromTaz="origin-X20Y25" toTaz="destination-X4Y30" departLane="free" departSpeed="max"/>
    <trip id="hour_8_1720" depart="28813.23" from="11939530906" to="237582244" fromTaz="grid-X4Y14" toTaz="fringe-X1Y12" departLane="free" departSpeed="max"/>
    <trip id="hour_8_1640" depart="28813.26" from="158817487" to="275056710" fromTaz="grid-X3Y26" toTaz="destination-X4Y30" departLane="free" departSpeed="max"/>
    <trip id="hour_8_1756" depart="28814.02" from="51850830" to="275056710" fromTaz="grid-X4Y27" toTaz="destination-X4Y30" departLane="free" departSpeed="max"/>
    <trip id="hour_8_1945" depart="28814.41" from="984980735" to="452051334" fromTaz="grid-X5Y9" toTaz="destination-X7Y1" departLane="free" departSpeed="max"/>
    <trip id="hour_8_3064" depart="28814.64" from="452051337" to="290538999" fromTaz="origin-X7Y1" toTaz="destination-X19Y25" departLane="free" departSpeed="max"/>
    <trip id="hour_8_1794" depart="28814.71" from="11939530132" to="237582244" fromTaz="grid-X5Y14" toTaz="fringe-X1Y12" departLane="free" departSpeed="max"/>
    <trip id="hour_8_1205" depart="28814.93" from="-290456883" to="275056710" fromTaz="grid-X12Y26" toTaz="destination-X4Y30" departLane="free" departSpeed="max"/>
    <trip id="hour_8_1979" depart="28815.00" from="128434790" to="237582244" fromTaz="grid-X6Y16" toTaz="fringe-X1Y12" departLane="free" departSpeed="max"/>
    <trip id="hour_8_1427" depart="28815.11" from="-169336554" to="307024526" fromTaz="grid-X22Y13" toTaz="fringe-X23Y15" departLane="free" departSpeed="max"/>
    <trip id="hour_8_2354" depart="28815.14" from="44770418#0" to="-237582244" fromTaz="grid-X9Y23" toTaz="fringe-X1Y12" departLane="free" departSpeed="max"/>
    <trip id="hour_8_1541" depart="28815.17" from="-207067942" to="-237582244" fromTaz="grid-X2Y14" toTaz="fringe-X1Y12" departLane="free" departSpeed="max"/>
    <trip id="hour_8_974" depart="28815.27" from="929240359" to="-654765962" fromTaz="fringe-X7Y28" toTaz="fringe-X16Y17" departLane="free" departSpeed="max"/>
    <trip id="hour_8_1824" depart="28815.34" from="-11939543481" to="-237582244" fromTaz="grid-X5Y20" toTaz="fringe-X1Y12" departLane="free" departSpeed="max"/>
    <trip id="hour_8_966" depart="28815.75" from="929240359" to="275056710" fromTaz="fringe-X7Y28" toTaz="destination-X4Y30" departLane="free" departSpeed="max"/>
    <trip id="hour_8_2263" depart="28815.90" from="155094215" to="290538999" fromTaz="grid-X8Y3" toTaz="destination-X19Y25" departLane="free" departSpeed="max"/>
    <trip id="hour_8_1224" depart="28816.08" from="-229335379" to="275056710" fromTaz="grid-X14Y18" toTaz="destination-X4Y30" departLane="free" departSpeed="max"/>
    <trip id="hour_8_2598" depart="28816.66" from="185260338" to="275056710" fromTaz="origin-X20Y25" toTaz="destination-X4Y30" departLane="free" departSpeed="max"/>
    <trip id="hour_8_2081" depart="28816.72" from="930774590" to="237582244" fromTaz="grid-X6Y23" toTaz="fringe-X1Y12" departLane="free" departSpeed="max"/>
    <trip id="hour_8_3005" depart="28816.83" from="24821181" to="290538999" fromTaz="origin-X4Y30" toTaz="destination-X19Y25" departLane="free" departSpeed="max"/>
    <trip id="hour_8_418" depart="28817.18" from="-10666718" to="-375714879" fromTaz="fringe-X19Y23" toTaz="fringe-X18Y26" departLane="free" departSpeed="max"/>
    <trip id="hour_8_98" depart="28817.50" from="87194342" to="-11939537240" fromTaz="fringe-X11Y4" toTaz="grid-X5Y9" departLane="free" departSpeed="max"/>
    <trip id="hour_8_2323" depart="28817.55" from="110826572" to="275056710" fromTaz="grid-X9Y22" toTaz="destination-X4Y30" departLane="free" departSpeed="max"/>
    <trip id="hour_8_153" depart="28817.81" from="11939526419" to="290538999" fromTaz="fringe-X16Y26" toTaz="destination-X19Y25" departLane="free" departSpeed="max"/>
    <trip id="hour_8_23" depart="28818.13" from="-52045883" to="71736663" fromTaz="fringe-X10Y1" toTaz="grid-X8Y2" departLane="free" departSpeed="max"/>
    <trip id="hour_8_684" depart="28818.97" from="12968189#1" to="-46650701" fromTaz="fringe-X20Y7" toTaz="grid-X8Y1" departLane="free" departSpeed="max"/>
    <trip id="hour_8_379" depart="28819.61" from="-10666718" to="150270059" fromTaz="fringe-X19Y23" toTaz="fringe-X16Y26" departLane="free" departSpeed="max"/>
    <trip id="hour_8_1035" depart="28819.64" from="5213455" to="11939537817" fromTaz="fringe-X7Y28" toTaz="grid-X9Y22" departLane="free" departSpeed="max"/>
    <trip id="hour_8_1705" depart="28819.64" from="-11939525104" to="237582244" fromTaz="grid-X4Y11" toTaz="fringe-X1Y12" departLane="free" departSpeed="max"/>
    <trip id="hour_8_1745" depart="28819.71" from="28981425" to="-654765962" fromTaz="grid-X4Y26" toTaz="fringe-X16Y17" departLane="free" departSpeed="max"/>
    <trip id="hour_8_2817" depart="28820.04" from="24821181" to="290538999" fromTaz="origin-X4Y30" toTaz="destination-X19Y25" departLane="free" departSpeed="max"/>
    <trip id="hour_8_1872" depart="28820.09" from="11939535983" to="654765962" fromTaz="grid-X5Y25" toTaz="fringe-X16Y17" departLane="free" departSpeed="max"/>
    <trip id="hour_8_2370" depart="28820.18" from="735174821" to="275056710" fromTaz="grid-X9Y24" toTaz="destination-X4Y30" departLane="free" departSpeed="max"/>
    <trip id="hour_8_993" depart="28821.05" from="-326572945" to="11939531643" fromTaz="fringe-X7Y28" toTaz="grid-X10Y21" departLane="free" departSpeed="max"/>
    <trip id="hour_8_1840" depart="28821.20" from="-11939548886" to="-237582244" fromTaz="grid-X5Y21" toTaz="fringe-X1Y12" departLane="free" departSpeed="max"/>
    <trip id="hour_8_1850" depart="28821.26" from="-11939545654" to="-237582244" fromTaz="grid-X5Y22" toTaz="fringe-X1Y12" departLane="free" departSpeed="max"/>
    <trip id="hour_8_2502" depart="28821.41" from="185260338" to="275056710" fromTaz="origin-X20Y25" toTaz="destination-X4Y30" departLane="free" departSpeed="max"/>
    <trip id="hour_8_1915" depart="28822.64" from="-142676274" to="275056710" fromTaz="grid-X5Y28" toTaz="destination-X4Y30" departLane="free" departSpeed="max"/>
    <trip id="hour_8_2738" depart="28822.69" from="24821181" to="290538999" fromTaz="origin-X4Y30" toTaz="destination-X19Y25" departLane="free" departSpeed="max"/>
    <trip id="hour_8_1261" depart="28822.82" from="-231309156" to="-24793256" fromTaz="grid-X15Y6" toTaz="fringe-X23Y16" departLane="free" departSpeed="max"/>
    <trip id="hour_8_596" depart="28823.70" from="143075780" to="8896380" fromTaz="fringe-X20Y21" toTaz="fringe-X23Y15" departLane="free" departSpeed="max"/>
    <trip id="hour_8_1478" depart="28824.00" from="-1188704304" to="290538999" fromTaz="grid-X24Y16" toTaz="destination-X19Y25" departLane="free" departSpeed="max"/>
    <trip id="hour_8_3087" depart="28824.04" from="452051337" to="158346347" fromTaz="origin-X7Y1" toTaz="fringe-X19Y10" departLane="free" departSpeed="max"/>
    <trip id="hour_8_1288" depart="28824.44" from="-451704783" to="452051334" fromTaz="grid-X17Y6" toTaz="destination-X7Y1" departLane="free" departSpeed="max"/>
    <trip id="hour_8_1528" depart="28824.89" from="40193050" to="237582244" fromTaz="grid-X2Y13" toTaz="fringe-X1Y12" departLane="free" departSpeed="max"/>
    <trip id="hour_8_581" depart="28824.98" from="-143075776" to="7706026" fromTaz="fringe-X20Y21" toTaz="fringe-X18Y9" departLane="free" departSpeed="max"/>
    <trip id="hour_8_2998" depart="28825.12" from="24821181" to="290538999" fromTaz="origin-X4Y30" toTaz="destination-X19Y25" departLane="free" departSpeed="max"/>
    <trip id="hour_8_1753" depart="28825.12" from="68468562" to="275056710" fromTaz="grid-X4Y27" toTaz="destination-X4Y30" departLane="free" departSpeed="max"/>
    <trip id="hour_8_16" depart="28825.67" from="-52045883" to="231309154" fromTaz="fringe-X10Y1" toTaz="grid-X15Y6" departLane="free" departSpeed="max"/>
    <trip id="hour_8_1577" depart="28825.86" from="-11939537374" to="275056710" fromTaz="grid-X2Y26" toTaz="destination-X4Y30" departLane="free" departSpeed="max"/>
    <trip id="hour_8_624" depart="28825.91" from="12968189#1" to="452051334" fromTaz="fringe-X20Y7" toTaz="destination-X7Y1" departLane="free" departSpeed="max"/>
    <trip id="hour_8_778" depart="28826.00" from="40425140" to="275056710" fromTaz="fringe-X4Y29" toTaz="destination-X4Y30" departLane="free" departSpeed="max"/>
    <trip id="hour_8_2084" depart="28826.23" from="11939532192" to="989053825" fromTaz="grid-X6Y23" toTaz="fringe-X20Y10" departLane="free" departSpeed="max"/>
    <trip id="hour_8_1309" depart="28826.53" from="56469031" to="452051334" fromTaz="grid-X17Y7" toTaz="destination-X7Y1" departLane="free" departSpeed="max"/>
    <trip id="hour_8_2959" depart="28827.56" from="24821181" to="290538999" fromTaz="origin-X4Y30" toTaz="destination-X19Y25" departLane="free" departSpeed="max"/>
    <trip id="hour_8_2541" depart="28827.65" from="185260338" to="275056710" fromTaz="origin-X20Y25" toTaz="destination-X4Y30" departLane="free" departSpeed="max"/>
    <trip id="hour_8_2231" depart="28827.81" from="-11939532048" to="307024526" fromTaz="grid-X8Y2" toTaz="fringe-X23Y15" departLane="free" departSpeed="max"/>
    <trip id="hour_8_1184" depart="28828.78" from="-121154155" to="275056710" fromTaz="grid-X12Y19" toTaz="destination-X4Y30" departLane="free" departSpeed="max"/>
    <trip id="hour_8_714" depart="28829.82" from="-479358807" to="452051334" fromTaz="fringe-X22Y14" toTaz="destination-X7Y1" departLane="free" departSpeed="max"/>
    <trip id="hour_8_2242" depart="28830.03" from="-71736664" to="134105523" fromTaz="grid-X8Y2" toTaz="fringe-X24Y16" departLane="free" departSpeed="max"/>
    <trip id="hour_8_2921" depart="28830.05" from="24821181" to="290538999" fromTaz="origin-X4Y30" toTaz="destination-X19Y25" departLane="free" departSpeed="max"/>
    <trip id="hour_8_2625" depart="28830.10" from="185260338" to="275056710" fromTaz="origin-X20Y25" toTaz="destination-X4Y30" departLane="free" departSpeed="max"/>
    <trip id="hour_8_2656" depart="28830.18" from="185260338" to="275056710" fromTaz="origin-X20Y25" toTaz="destination-X4Y30" departLane="free" departSpeed="max"/>
    <trip id="hour_8_76" depart="28830.86" from="164785142" to="45569875" fromTaz="fringe-X11Y4" toTaz="grid-X10Y1" departLane="free" departSpeed="max"/>
    <trip id="hour_8_2597" depart="28830.87" from="185260338" to="275056710" fromTaz="origin-X20Y25" toTaz="destination-X4Y30" departLane="free" departSpeed="max"/>
    <trip id="hour_8_483" depart="28830.89" from="143075776" to="290538999" fromTaz="fringe-X20Y21" toTaz="destination-X19Y25" departLane="free" departSpeed="max"/>
    <trip id="hour_8_2540" depart="28831.13" from="185260338" to="275056710" fromTaz="origin-X20Y25" toTaz="destination-X4Y30" departLane="free" departSpeed="max"/>
    <trip id="hour_8_1943" depart="28831.33" from="125011678" to="452051334" fromTaz="grid-X5Y8" toTaz="destination-X7Y1" departLane="free" departSpeed="max"/>
    <trip id="hour_8_1918" depart="28831.76" from="202156414" to="275056710" fromTaz="grid-X5Y28" toTaz="destination-X4Y30" departLane="free" departSpeed="max"/>
    <trip id="hour_8_2569" depart="28831.88" from="185260338" to="275056710" fromTaz="origin-X20Y25" toTaz="destination-X4Y30" departLane="free" departSpeed="max"/>
    <trip id="hour_8_934" depart="28832.26" from="326572941" to="275056710" fromTaz="fringe-X7Y28" toTaz="destination-X4Y30" departLane="free" departSpeed="max"/>
    <trip id="hour_8_2710" depart="28832.76" from="24821181" to="290538999" fromTaz="origin-X4Y30" toTaz="destination-X19Y25" departLane="free" departSpeed="max"/>
    <trip id="hour_8_1769" depart="28832.84" from="-154792444" to="275056710" fromTaz="grid-X4Y28" toTaz="destination-X4Y30" departLane="free" departSpeed="max"/>
    <trip id="hour_8_1948" depart="28832.93" from="11939541271" to="654765962" fromTaz="grid-X6Y14" toTaz="fringe-X16Y17" departLane="free" departSpeed="max"/>
    <trip id="hour_8_462" depart="28833.79" from="-958174516" to="275056710" fromTaz="fringe-X1Y23" toTaz="destination-X4Y30" departLane="free" departSpeed="max"/>
    <trip id="hour_8_1746" depart="28834.90" from="28981425" to="-237582244" fromTaz="grid-X4Y26" toTaz="fringe-X1Y12" departLane="free" departSpeed="max"/>
    <trip id="hour_8_762" depart="28834.92" from="40425140" to="275056710" fromTaz="fringe-X4Y29" toTaz="destination-X4Y30" departLane="free" departSpeed="max"/>
    <trip id="hour_8_1542" depart="28835.18" from="-40192684" to="-237582244" fromTaz="grid-X2Y14" toTaz="fringe-X1Y12" departLane="free" departSpeed="max"/>
    <trip id="hour_8_1765" depart="28835.22" from="11939540987" to="275056710" fromTaz="grid-X4Y28" toTaz="destination-X4Y30" departLane="free" departSpeed="max"/>
    <trip id="hour_8_313" depart="28836.08" from="5058806" to="4414008" fromTaz="fringe-X18Y9" toTaz="fringe-X19Y10" departLane="free" departSpeed="max"/>
    <trip id="hour_8_1172" depart="28836.35" from="734928999" to="275056710" fromTaz="grid-X11Y26" toTaz="destination-X4Y30" departLane="free" departSpeed="max"/>
    <trip id="hour_8_741" depart="28836.64" from="-134105523" to="479358807" fromTaz="fringe-X24Y16" toTaz="fringe-X22Y14" departLane="free" departSpeed="max"/>
    <trip id="hour_8_239" depart="28836.69" from="-375714879" to="290538999" fromTaz="fringe-X18Y26" toTaz="destination-X19Y25" departLane="free" departSpeed="max"/>
    <trip id="hour_8_2182" depart="28837.00" from="452034570" to="237130850" fromTaz="grid-X8Y1" toTaz="fringe-X16Y26" departLane="free" departSpeed="max"/>
    <trip id="hour_8_1686" depart="28837.17" from="-11939545746" to="275056710" fromTaz="grid-X3Y28" toTaz="destination-X4Y30" departLane="free" departSpeed="max"/>
    <trip id="hour_8_271" depart="28837.27" from="375714879" to="-52045883" fromTaz="fringe-X18Y26" toTaz="fringe-X10Y1" departLane="free" departSpeed="max"/>
    <trip id="hour_8_1639" depart="28837.39" from="1148118307" to="275056710" fromTaz="grid-X3Y26" toTaz="destination-X4Y30" departLane="free" departSpeed="max"/>
    <trip id="hour_8_731" depart="28837.58" from="24793256" to="307024527" fromTaz="fringe-X23Y16" toTaz="fringe-X23Y15" departLane="free" departSpeed="max"/>
    <trip id="hour_8_2995" depart="28837.58" from="24821181" to="290538999" fromTaz="origin-X4Y30" toTaz="destination-X19Y25" departLane="free" departSpeed="max"/>
    <trip id="hour_8_482" depart="28837.70" from="-143075776" to="290538999" fromTaz="fringe-X20Y21" toTaz="destination-X19Y25" departLane="free" departSpeed="max"/>
    <trip id="hour_8_2160" depart="28837.86" from="11939538886" to="-654765962" fromTaz="grid-X7Y23" toTaz="fringe-X16Y17" departLane="free" departSpeed="max"/>
    <trip id="hour_8_2756" depart="28837.96" from="24821181" to="290538999" fromTaz="origin-X4Y30" toTaz="destination-X19Y25" departLane="free" departSpeed="max"/>
    <trip id="hour_8_86" depart="28838.04" from="164785142" to="68526296" fromTaz="fringe-X11Y4" toTaz="grid-X5Y4" departLane="free" departSpeed="max"/>
    <trip id="hour_8_789" depart="28838.97" from="40425140" to="275056710" fromTaz="fringe-X4Y29" toTaz="destination-X4Y30" departLane="free" departSpeed="max"/>
    <trip id="hour_8_948" depart="28839.29" from="326572945" to="275056710" fromTaz="fringe-X7Y28" toTaz="destination-X4Y30" departLane="free" departSpeed="max"/>
    <trip id="hour_8_2970" depart="28839.62" from="24821181" to="290538999" fromTaz="origin-X4Y30" toTaz="destination-X19Y25" departLane="free" departSpeed="max"/>
    <trip id="hour_8_2841" depart="28839.66" from="24821181" to="290538999" fromTaz="origin-X4Y30" toTaz="destination-X19Y25" departLane="free" departSpeed="max"/>
    <trip id="hour_8_3101" depart="28839.79" from="452051337" to="12968189#1" fromTaz="origin-X7Y1" toTaz="fringe-X20Y7" departLane="free" departSpeed="max"/>
    <trip id="hour_8_2390" depart="28839.97" from="-11939530736" to="237582244" fromTaz="grid-X9Y24" toTaz="fringe-X1Y12" departLane="free" departSpeed="max"/>
    <trip id="hour_8_3079" depart="28840.46" from="452051337" to="7706026" fromTaz="origin-X7Y1" toTaz="fringe-X18Y9" departLane="free" departSpeed="max"/>
    <trip id="hour_8_1306" depart="28841.06" from="346397316" to="452051334" fromTaz="grid-X17Y7" toTaz="destination-X7Y1" departLane="free" departSpeed="max"/>
    <trip id="hour_8_37" depart="28841.55" from="87194347" to="452051334" fromTaz="fringe-X11Y4" toTaz="destination-X7Y1" departLane="free" departSpeed="max"/>
    <trip id="hour_8_1811" depart="28841.83" from="11939532395" to="654765962" fromTaz="grid-X5Y19" toTaz="fringe-X16Y17" departLane="free" departSpeed="max"/>
    <trip id="hour_8_70" depart="28842.16" from="87194347" to="237582244" fromTaz="fringe-X11Y4" toTaz="fringe-X1Y12" departLane="free" departSpeed="max"/>
    <trip id="hour_8_3061" depart="28842.24" from="24821181" to="-11939543830" fromTaz="origin-X4Y30" toTaz="grid-X9Y22" departLane="free" departSpeed="max"/>
    <trip id="hour_8_620" depart="28842.34" from="143075780" to="11939535479" fromTaz="fringe-X20Y21" toTaz="grid-X5Y9" departLane="free" departSpeed="max"/>
    <trip id="hour_8_2889" depart="28842.49" from="24821181" to="290538999" fromTaz="origin-X4Y30" toTaz="destination-X19Y25" departLane="free" departSpeed="max"/>
    <trip id="hour_8_1550" depart="28842.51" from="-220363463" to="654765962" fromTaz="grid-X2Y22" toTaz="fringe-X16Y17" departLane="free" departSpeed="max"/>
    <trip id="hour_8_1129" depart="28844.80" from="-735250190" to="275056710" fromTaz="grid-X11Y25" toTaz="destination-X4Y30" departLane="free" departSpeed="max"/>
    <trip id="hour_8_1278" depart="28844.99" from="451704773" to="237582244" fromTaz="grid-X16Y6" toTaz="fringe-X1Y12" departLane="free" departSpeed="max"/>
    <trip id="hour_8_428" depart="28845.53" from="185406398" to="237582244" fromTaz="fringe-X1Y22" toTaz="fringe-X1Y12" departLane="free" departSpeed="max"/>
    <trip id="hour_8_2463" depart="28845.59" from="185260338" to="275056710" fromTaz="origin-X20Y25" toTaz="destination-X4Y30" departLane="free" departSpeed="max"/>
    <trip id="hour_8_2233" depart="28846.26" from="43846138" to="307024527" fromTaz="grid-X8Y2" toTaz="fringe-X23Y15" departLane="free" departSpeed="max"/>
    <trip id="hour_8_1501" depart="28846.54" from="-11939546954" to="-237582244" fromTaz="grid-X2Y11" toTaz="fringe-X1Y12" departLane="free" departSpeed="max"/>
    <trip id="hour_8_1114" depart="28846.57" from="11939544126" to="958174516" fromTaz="grid-X10Y25" toTaz="fringe-X1Y23" departLane="free" departSpeed="max"/>
    <trip id="hour_8_3040" depart="28846.72" from="24821181" to="-958174516" fromTaz="origin-X4Y30" toTaz="fringe-X1Y23" departLane="free" departSpeed="max"/>
    <trip id="hour_8_2294" depart="28846.79" from="71890080" to="-479358807" fromTaz="grid-X8Y3" toTaz="fringe-X22Y14" departLane="free" departSpeed="max"/>
    <trip id="hour_8_527" depart="28846.90" from="143075780" to="452051334" fromTaz="fringe-X20Y21" toTaz="destination-X7Y1" departLane="free" departSpeed="max"/>
    <trip id="hour_8_706" depart="28847.16" from="-121921459" to="4414008" fromTaz="fringe-X22Y11" toTaz="fringe-X19Y10" departLane="free" departSpeed="max"/>
    <trip id="hour_8_2034" depart="28847.47" from="-11939547190" to="237582244" fromTaz="grid-X6Y20" toTaz="fringe-X1Y12" departLane="free" departSpeed="max"/>
    <trip id="hour_8_1364" depart="28847.53" from="-171024561" to="375714879" fromTaz="grid-X20Y11" toTaz="fringe-X18Y26" departLane="free" departSpeed="max"/>
    <trip id="hour_8_2583" depart="28847.65" from="185260338" to="275056710" fromTaz="origin-X20Y25" toTaz="destination-X4Y30" departLane="free" departSpeed="max"/>
    <trip id="hour_8_705" depart="28847.95" from="-121921459" to="287201448" fromTaz="fringe-X22Y11" toTaz="fringe-X18Y9" departLane="free" departSpeed="max"/>
    <trip id="hour_8_2415" depart="28848.28" from="185260338" to="275056710" fromTaz="origin-X20Y25" toTaz="destination-X4Y30" departLane="free" departSpeed="max"/>
    <trip id="hour_8_760" depart="28848.42" from="40425140" to="275056710" fromTaz="fringe-X4Y29" toTaz="destination-X4Y30" departLane="free" departSpeed="max"/>
    <trip id="hour_8_1761" depart="28848.55" from="-11939543499" to="275056710" fromTaz="grid-X4Y28" toTaz="destination-X4Y30" departLane="free" departSpeed="max"/>
    <trip id="hour_8_542" depart="28848.84" from="143075776" to="11939526419" fromTaz="fringe-X20Y21" toTaz="fringe-X16Y26" departLane="free" departSpeed="max"/>
    <trip id="hour_8_2089" depart="28849.22" from="930774591" to="307024527" fromTaz="grid-X6Y23" toTaz="fringe-X23Y15" departLane="free" departSpeed="max"/>
    <trip id="hour_8_2587" depart="28849.53" from="185260338" to="275056710" fromTaz="origin-X20Y25" toTaz="destination-X4Y30" departLane="free" departSpeed="max"/>
    <trip id="hour_8_1837" depart="28849.85" from="-49942411" to="237582244" fromTaz="grid-X5Y21" toTaz="fringe-X1Y12" departLane="free" departSpeed="max"/>
    <trip id="hour_8_2555" depart="28849.86" from="185260338" to="275056710" fromTaz="origin-X20Y25" toTaz="destination-X4Y30" departLane="free" departSpeed="max"/>
    <trip id="hour_8_2472" depart="28850.01" from="185260338" to="275056710" fromTaz="origin-X20Y25" toTaz="destination-X4Y30" departLane="free" departSpeed="max"/>
    <trip id="hour_8_2127" depart="28850.08" from="-11939542153" to="290538999" fromTaz="grid-X7Y19" toTaz="destination-X19Y25" departLane="free" departSpeed="max"/>
    <trip id="hour_8_1657" depart="28850.24" from="11939529884" to="275056710" fromTaz="grid-X3Y27" toTaz="destination-X4Y30" departLane="free" departSpeed="max"/>
    <trip id="hour_8_2988" depart="28850.39" from="24821181" to="290538999" fromTaz="origin-X4Y30" toTaz="destination-X19Y25" departLane="free" departSpeed="max"/>
    <trip id="hour_8_2961" depart="28850.80" from="24821181" to="290538999" fromTaz="origin-X4Y30" toTaz="destination-X19Y25" departLane="free" departSpeed="max"/>
    <trip id="hour_8_2315" depart="28851.15" from="11939549865" to="275056710" fromTaz="grid-X9Y21" toTaz="destination-X4Y30" departLane="free" departSpeed="max"/>
    <trip id="hour_8_682" depart="28851.46" from="-12968189#1" to="-71736663" fromTaz="fringe-X20Y7" toTaz="grid-X7Y2" departLane="free" departSpeed="max"/>
    <trip id="hour_8_1286" depart="28851.58" from="-451704782" to="452051334" fromTaz="grid-X17Y6" toTaz="destination-X7Y1" departLane="free" departSpeed="max"/>
    <trip id="hour_8_2813" depart="28852.03" from="24821181" to="290538999" fromTaz="origin-X4Y30" toTaz="destination-X19Y25" departLane="free" departSpeed="max"/>
    <trip id="hour_8_1406" depart="28852.27" from="-121921437" to="452051334" fromTaz="grid-X22Y11" toTaz="destination-X7Y1" departLane="free" departSpeed="max"/>
    <trip id="hour_8_10" depart="28852.36" from="-52045883" to="-11939529175" fromTaz="fringe-X10Y1" toTaz="grid-X11Y3" departLane="free" departSpeed="max"/>
    <trip id="hour_8_2859" depart="28852.39" from="24821181" to="290538999" fromTaz="origin-X4Y30" toTaz="destination-X19Y25" departLane="free" departSpeed="max"/>
    <trip id="hour_8_276" depart="28852.47" from="375714879" to="4414008" fromTaz="fringe-X18Y26" toTaz="fringe-X19Y10" departLane="free" departSpeed="max"/>
    <trip id="hour_8_1197" depart="28852.49" from="-11939549119" to="275056710" fromTaz="grid-X12Y26" toTaz="destination-X4Y30" departLane="free" departSpeed="max"/>
    <trip id="hour_8_2846" depart="28852.62" from="24821181" to="290538999" fromTaz="origin-X4Y30" toTaz="destination-X19Y25" departLane="free" departSpeed="max"/>
    <trip id="hour_8_1237" depart="28852.75" from="11939548477" to="-375714879" fromTaz="grid-X15Y5" toTaz="fringe-X18Y26" departLane="free" departSpeed="max"/>
    <trip id="hour_8_1199" depart="28852.77" from="-173454513" to="275056710" fromTaz="grid-X12Y26" toTaz="destination-X4Y30" departLane="free" departSpeed="max"/>
    <trip id="hour_8_1504" depart="28852.89" from="11939538400" to="-237582244" fromTaz="grid-X2Y11" toTaz="fringe-X1Y12" departLane="free" departSpeed="max"/>