<?xml version="1.0" encoding="UTF-8"?>

<routes xmlns:xsi="http://www.w3.org/2001/XMLSchema-instance" xsi:noNamespaceSchemaLocation="http://sumo.dlr.de/xsd/routes_file.xsd">
    <trip id="hour_17_2354" depart="61200.80" from="185260338" to="275056710" fromTaz="origin-X20Y25" toTaz="destination-X4Y30" departLane="free" departSpeed="max"/>
    <trip id="hour_17_2482" depart="61200.90" from="185260338" to="275056710" fromTaz="origin-X20Y25" toTaz="destination-X4Y30" departLane="free" departSpeed="max"/>
    <trip id="hour_17_141" depart="61201.15" from="164785144" to="-40193055" fromTaz="fringe-X11Y4" toTaz="grid-X2Y13" departLane="free" departSpeed="max"/>
    <trip id="hour_17_845" depart="61201.28" from="24793256" to="11939549659" fromTaz="fringe-X23Y16" toTaz="grid-X20Y7" departLane="free" departSpeed="max"/>
    <trip id="hour_17_1714" depart="61201.55" from="138757414" to="452051334" fromTaz="grid-X23Y14" toTaz="destination-X7Y1" departLane="free" departSpeed="max"/>
    <trip id="hour_17_1070" depart="61201.84" from="326572945" to="-11939531318" fromTaz="fringe-X7Y28" toTaz="grid-X10Y24" departLane="free" departSpeed="max"/>
    <trip id="hour_17_1020" depart="61202.92" from="5213455" to="275056710" fromTaz="fringe-X7Y28" toTaz="destination-X4Y30" departLane="free" departSpeed="max"/>
    <trip id="hour_17_660" depart="61203.14" from="12968189#1" to="452051334" fromTaz="fringe-X20Y7" toTaz="destination-X7Y1" departLane="free" departSpeed="max"/>
    <trip id="hour_17_3242" depart="61203.86" from="452051337" to="-121921459" fromTaz="origin-X7Y1" toTaz="fringe-X22Y11" departLane="free" departSpeed="max"/>
    <trip id="hour_17_2353" depart="61204.13" from="185260338" to="275056710" fromTaz="origin-X20Y25" toTaz="destination-X4Y30" departLane="free" departSpeed="max"/>
    <trip id="hour_17_3314" depart="61204.32" from="452051337" to="171007703" fromTaz="origin-X7Y1" toTaz="grid-X19Y7" departLane="free" departSpeed="max"/>
    <trip id="hour_17_1547" depart="61204.33" from="-11939539637" to="-237582244" fromTaz="grid-X21Y11" toTaz="fringe-X1Y12" departLane="free" departSpeed="max"/>
    <trip id="hour_17_1362" depart="61204.55" from="165378138" to="37850228" fromTaz="grid-X17Y7" toTaz="fringe-X7Y0" departLane="free" departSpeed="max"/>
    <trip id="hour_17_792" depart="61205.00" from="479358807" to="307024526" fromTaz="fringe-X22Y14" toTaz="fringe-X23Y15" departLane="free" departSpeed="max"/>
    <trip id="hour_17_2545" depart="61205.67" from="185260338" to="275056710" fromTaz="origin-X20Y25" toTaz="destination-X4Y30" departLane="free" departSpeed="max"/>
    <trip id="hour_17_2438" depart="61206.09" from="185260338" to="275056710" fromTaz="origin-X20Y25" toTaz="destination-X4Y30" departLane="free" departSpeed="max"/>
    <trip id="hour_17_297" depart="61206.14" from="237130850" to="307024527" fromTaz="fringe-X16Y26" toTaz="fringe-X23Y15" departLane="free" departSpeed="max"/>
    <trip id="hour_17_1696" depart="61206.35" from="11939525710" to="452051334" fromTaz="grid-X22Y14" toTaz="destination-X7Y1" departLane="free" departSpeed="max"/>
    <trip id="hour_17_2000" depart="61206.40" from="-11939532192" to="654765962" fromTaz="grid-X6Y23" toTaz="fringe-X16Y17" departLane="free" departSpeed="max"/>
    <trip id="hour_17_2448" depart="61207.37" from="185260338" to="275056710" fromTaz="origin-X20Y25" toTaz="destination-X4Y30" departLane="free" departSpeed="max"/>
    <trip id="hour_17_2668" depart="61207.43" from="185260338" to="275056710" fromTaz="origin-X20Y25" toTaz="destination-X4Y30" departLane="free" departSpeed="max"/>
    <trip id="hour_17_1980" depart="61207.55" from="-11939540310" to="275056710" fromTaz="grid-X6Y18" toTaz="destination-X4Y30" departLane="free" departSpeed="max"/>
    <trip id="hour_17_2128" depart="61208.03" from="-71736668" to="10666718" fromTaz="grid-X8Y2" toTaz="fringe-X19Y23" departLane="free" departSpeed="max"/>
    <trip id="hour_17_1498" depart="61208.39" from="11939532094" to="307024526" fromTaz="grid-X20Y9" toTaz="fringe-X23Y15" departLane="free" departSpeed="max"/>
    <trip id="hour_17_310" depart="61208.55" from="11939526419" to="134105523" fromTaz="fringe-X16Y26" toTaz="fringe-X24Y16" departLane="free" departSpeed="max"/>
    <trip id="hour_17_2033" depart="61210.87" from="-11939545087" to="375714879" fromTaz="grid-X7Y2" toTaz="fringe-X18Y26" departLane="free" departSpeed="max"/>
    <trip id="hour_17_403" depart="61211.05" from="-326780459" to="452051334" fromTaz="fringe-X19Y22" toTaz="destination-X7Y1" departLane="free" departSpeed="max"/>
    <trip id="hour_17_2797" depart="61211.42" from="24821181" to="290538999" fromTaz="origin-X4Y30" toTaz="destination-X19Y25" departLane="free" departSpeed="max"/>
    <trip id="hour_17_644" depart="61212.32" from="4725334" to="-143075780" fromTaz="fringe-X20Y25" toTaz="fringe-X20Y21" departLane="free" departSpeed="max"/>
    <trip id="hour_17_2425" depart="61212.48" from="185260338" to="275056710" fromTaz="origin-X20Y25" toTaz="destination-X4Y30" departLane="free" departSpeed="max"/>
    <trip id="hour_17_2507" depart="61212.68" from="185260338" to="275056710" fromTaz="origin-X20Y25" toTaz="destination-X4Y30" departLane="free" departSpeed="max"/>
    <trip id="hour_17_351" depart="61212.86" from="375714879" to="307024526" fromTaz="fringe-X18Y26" toTaz="fringe-X23Y15" departLane="free" departSpeed="max"/>
    <trip id="hour_17_301" depart="61212.93" from="237130850" to="8896380" fromTaz="fringe-X16Y26" toTaz="fringe-X23Y15" departLane="free" departSpeed="max"/>
    <trip id="hour_17_494" depart="61212.98" from="326780459" to="-11939547947" fromTaz="fringe-X19Y22" toTaz="grid-X18Y7" departLane="free" departSpeed="max"/>
    <trip id="hour_17_2257" depart="61213.02" from="987011928" to="7706026" fromTaz="grid-X8Y3" toTaz="fringe-X18Y9" departLane="free" departSpeed="max"/>
    <trip id="hour_17_2578" depart="61213.10" from="185260338" to="275056710" fromTaz="origin-X20Y25" toTaz="destination-X4Y30" departLane="free" departSpeed="max"/>
    <trip id="hour_17_316" depart="61213.41" from="11939526419" to="182039270" fromTaz="fringe-X16Y26" toTaz="grid-X19Y8" departLane="free" departSpeed="max"/>
    <trip id="hour_17_1773" depart="61213.61" from="-51971106" to="275056710" fromTaz="grid-X2Y24" toTaz="destination-X4Y30" departLane="free" departSpeed="max"/>
    <trip id="hour_17_1786" depart="61214.02" from="11939536497" to="275056710" fromTaz="grid-X3Y22" toTaz="destination-X4Y30" departLane="free" departSpeed="max"/>
    <trip id="hour_17_1972" depart="61214.41" from="42484297" to="452051334" fromTaz="grid-X6Y14" toTaz="destination-X7Y1" departLane="free" departSpeed="max"/>
    <trip id="hour_17_1816" depart="61214.43" from="-11939546523" to="275056710" fromTaz="grid-X3Y27" toTaz="destination-X4Y30" departLane="free" departSpeed="max"/>
    <trip id="hour_17_3127" depart="61214.64" from="24821181" to="290456883" fromTaz="origin-X4Y30" toTaz="grid-X12Y26" departLane="free" departSpeed="max"/>
    <trip id="hour_17_1212" depart="61214.93" from="-735250189" to="275056710" fromTaz="grid-X11Y25" toTaz="destination-X4Y30" departLane="free" departSpeed="max"/>
    <trip id="hour_17_3122" depart="61214.94" from="24821181" to="735250186" fromTaz="origin-X4Y30" toTaz="grid-X11Y25" departLane="free" departSpeed="max"/>
    <trip id="hour_17_1451" depart="61215.11" from="-184785913" to="5058806" fromTaz="grid-X20Y11" toTaz="fringe-X18Y9" departLane="free" departSpeed="max"/>
    <trip id="hour_17_2412" depart="61215.14" from="185260338" to="275056710" fromTaz="origin-X20Y25" toTaz="destination-X4Y30" departLane="free" departSpeed="max"/>
    <trip id="hour_17_1578" depart="61215.17" from="-11939535807" to="452051334" fromTaz="grid-X21Y12" toTaz="destination-X7Y1" departLane="free" departSpeed="max"/>
    <trip id="hour_17_976" depart="61215.27" from="37850228" to="-168138716" fromTaz="fringe-X7Y0" toTaz="grid-X10Y1" departLane="free" departSpeed="max"/>
    <trip id="hour_17_3055" depart="61215.54" from="24821181" to="452051334" fromTaz="origin-X4Y30" toTaz="destination-X7Y1" departLane="free" departSpeed="max"/>
    <trip id="hour_17_968" depart="61215.75" from="40425140" to="-11939525667" fromTaz="fringe-X4Y29" toTaz="grid-X9Y21" departLane="free" departSpeed="max"/>
    <trip id="hour_17_2312" depart="61215.90" from="168138663" to="307024526" fromTaz="grid-X9Y2" toTaz="fringe-X23Y15" departLane="free" departSpeed="max"/>
    <trip id="hour_17_2662" depart="61216.66" from="185260338" to="275056710" fromTaz="origin-X20Y25" toTaz="destination-X4Y30" departLane="free" departSpeed="max"/>
    <trip id="hour_17_3067" depart="61216.83" from="24821181" to="-654765962" fromTaz="origin-X4Y30" toTaz="fringe-X16Y17" departLane="free" departSpeed="max"/>
    <trip id="hour_17_531" depart="61217.15" from="10666718" to="275056710" fromTaz="fringe-X19Y23" toTaz="destination-X4Y30" departLane="free" departSpeed="max"/>
    <trip id="hour_17_460" depart="61217.68" from="326780461" to="307023793" fromTaz="fringe-X19Y22" toTaz="fringe-X23Y15" departLane="free" departSpeed="max"/>
    <trip id="hour_17_2104" depart="61217.91" from="11939532048" to="164785142" fromTaz="grid-X8Y2" toTaz="fringe-X11Y4" departLane="free" departSpeed="max"/>
    <trip id="hour_17_10" depart="61218.39" from="52045883" to="452051334" fromTaz="fringe-X10Y1" toTaz="destination-X7Y1" departLane="free" departSpeed="max"/>
    <trip id="hour_17_204" depart="61218.68" from="11939526419" to="57373256" fromTaz="fringe-X16Y26" toTaz="fringe-X18Y9" departLane="free" departSpeed="max"/>
    <trip id="hour_17_684" depart="61218.97" from="12968189#1" to="158347370" fromTaz="fringe-X20Y7" toTaz="fringe-X19Y10" departLane="free" departSpeed="max"/>
    <trip id="hour_17_384" depart="61219.61" from="158347370" to="452051334" fromTaz="fringe-X19Y10" toTaz="destination-X7Y1" departLane="free" departSpeed="max"/>
    <trip id="hour_17_1046" depart="61219.64" from="5213455" to="134105523" fromTaz="fringe-X7Y28" toTaz="fringe-X24Y16" departLane="free" departSpeed="max"/>
    <trip id="hour_17_1777" depart="61219.71" from="154792492" to="-958174516" fromTaz="grid-X2Y25" toTaz="fringe-X1Y23" departLane="free" departSpeed="max"/>
    <trip id="hour_17_2288" depart="61219.73" from="71890080" to="8896380" fromTaz="grid-X8Y3" toTaz="fringe-X23Y15" departLane="free" departSpeed="max"/>
    <trip id="hour_17_462" depart="61219.74" from="326780459" to="8896380" fromTaz="fringe-X19Y22" toTaz="fringe-X23Y15" departLane="free" departSpeed="max"/>
    <trip id="hour_17_2880" depart="61220.04" from="24821181" to="290538999" fromTaz="origin-X4Y30" toTaz="destination-X19Y25" departLane="free" departSpeed="max"/>
    <trip id="hour_17_2430" depart="61220.18" from="185260338" to="275056710" fromTaz="origin-X20Y25" toTaz="destination-X4Y30" departLane="free" departSpeed="max"/>
    <trip id="hour_17_2152" depart="61220.25" from="11939530892" to="121921459" fromTaz="grid-X8Y2" toTaz="fringe-X22Y11" departLane="free" departSpeed="max"/>
    <trip id="hour_17_2262" depart="61220.36" from="-987011928" to="158346347" fromTaz="grid-X8Y3" toTaz="fringe-X19Y10" departLane="free" departSpeed="max"/>
    <trip id="hour_17_675" depart="61220.47" from="12968189#1" to="57373256" fromTaz="fringe-X20Y7" toTaz="fringe-X18Y9" departLane="free" departSpeed="max"/>
    <trip id="hour_17_3135" depart="61220.85" from="24821181" to="11939538197" fromTaz="origin-X4Y30" toTaz="grid-X1Y23" departLane="free" departSpeed="max"/>
    <trip id="hour_17_1872" depart="61221.20" from="-11939535811" to="275056710" fromTaz="grid-X4Y28" toTaz="destination-X4Y30" departLane="free" departSpeed="max"/>
    <trip id="hour_17_1883" depart="61221.26" from="-11939538228" to="275056710" fromTaz="grid-X4Y28" toTaz="destination-X4Y30" departLane="free" departSpeed="max"/>
    <trip id="hour_17_2566" depart="61221.41" from="185260338" to="275056710" fromTaz="origin-X20Y25" toTaz="destination-X4Y30" departLane="free" departSpeed="max"/>
    <trip id="hour_17_996" depart="61222.28" from="326572945" to="275056710" fromTaz="fringe-X7Y28" toTaz="destination-X4Y30" departLane="free" departSpeed="max"/>
    <trip id="hour_17_1941" depart="61222.64" from="-142676274" to="275056710" fromTaz="grid-X5Y28" toTaz="destination-X4Y30" departLane="free" departSpeed="max"/>
    <trip id="hour_17_2801" depart="61222.69" from="24821181" to="290538999" fromTaz="origin-X4Y30" toTaz="destination-X19Y25" departLane="free" departSpeed="max"/>
    <trip id="hour_17_1993" depart="61223.86" from="42918138" to="154716118" fromTaz="grid-X6Y20" toTaz="fringe-X7Y28" departLane="free" departSpeed="max"/>
    <trip id="hour_17_1050" depart="61223.89" from="326572941" to="-37850228" fromTaz="fringe-X7Y28" toTaz="fringe-X7Y0" departLane="free" departSpeed="max"/>
    <trip id="hour_17_1510" depart="61224.00" from="-11939539638" to="452051334" fromTaz="grid-X21Y11" toTaz="destination-X7Y1" departLane="free" departSpeed="max"/>
    <trip id="hour_17_1067" depart="61224.17" from="326572941" to="11939531645#0" fromTaz="fringe-X7Y28" toTaz="grid-X10Y21" departLane="free" departSpeed="max"/>
    <trip id="hour_17_867" depart="61224.58" from="40425140" to="275056710" fromTaz="fringe-X4Y29" toTaz="destination-X4Y30" departLane="free" departSpeed="max"/>
    <trip id="hour_17_572" depart="61224.98" from="-237582244" to="943507078" fromTaz="fringe-X1Y12" toTaz="grid-X9Y21" departLane="free" departSpeed="max"/>
    <trip id="hour_17_19" depart="61225.67" from="-52045883" to="164785144" fromTaz="fringe-X10Y1" toTaz="fringe-X11Y4" departLane="free" departSpeed="max"/>
    <trip id="hour_17_1615" depart="61225.86" from="-11939543535" to="4414008" fromTaz="grid-X21Y12" toTaz="fringe-X19Y10" departLane="free" departSpeed="max"/>
    <trip id="hour_17_789" depart="61226.00" from="-479358807" to="307023793" fromTaz="fringe-X22Y14" toTaz="fringe-X23Y15" departLane="free" departSpeed="max"/>
    <trip id="hour_17_2111" depart="61226.23" from="11939530890" to="-375714879" fromTaz="grid-X8Y2" toTaz="fringe-X18Y26" departLane="free" departSpeed="max"/>
    <trip id="hour_17_1455" depart="61226.38" from="184785911" to="8896380" fromTaz="grid-X20Y11" toTaz="fringe-X23Y15" departLane="free" departSpeed="max"/>
    <trip id="hour_17_1123" depart="61226.98" from="929240359" to="-132796270" fromTaz="fringe-X7Y28" toTaz="grid-X22Y12" departLane="free" departSpeed="max"/>
    <trip id="hour_17_3183" depart="61227.26" from="452051337" to="164785144" fromTaz="origin-X7Y1" toTaz="fringe-X11Y4" departLane="free" departSpeed="max"/>
    <trip id="hour_17_3022" depart="61227.56" from="24821181" to="290538999" fromTaz="origin-X4Y30" toTaz="destination-X19Y25" departLane="free" departSpeed="max"/>
    <trip id="hour_17_2605" depart="61227.65" from="185260338" to="275056710" fromTaz="origin-X20Y25" toTaz="destination-X4Y30" departLane="free" departSpeed="max"/>
    <trip id="hour_17_3102" depart="61228.10" from="24821181" to="307023793" fromTaz="origin-X4Y30" toTaz="fringe-X23Y15" departLane="free" departSpeed="max"/>
    <trip id="hour_17_1412" depart="61228.47" from="-11939550412" to="307023793" fromTaz="grid-X19Y9" toTaz="fringe-X23Y15" departLane="free" departSpeed="max"/>
    <trip id="hour_17_1477" depart="61228.53" from="11939549659" to="57373256" fromTaz="grid-X20Y7" toTaz="fringe-X18Y9" departLane="free" departSpeed="max"/>
    <trip id="hour_17_1819" depart="61228.77" from="-11939539920" to="275056710" fromTaz="grid-X3Y27" toTaz="destination-X4Y30" departLane="free" departSpeed="max"/>
    <trip id="hour_17_1193" depart="61228.78" from="-11939532269" to="275056710" fromTaz="grid-X10Y25" toTaz="destination-X4Y30" departLane="free" departSpeed="max"/>
    <trip id="hour_17_1232" depart="61228.82" from="11939541025" to="275056710" fromTaz="grid-X11Y26" toTaz="destination-X4Y30" departLane="free" departSpeed="max"/>
    <trip id="hour_17_2251" depart="61229.99" from="155094215" to="375714879" fromTaz="grid-X8Y3" toTaz="fringe-X18Y26" departLane="free" departSpeed="max"/>
    <trip id="hour_17_2984" depart="61230.05" from="24821181" to="290538999" fromTaz="origin-X4Y30" toTaz="destination-X19Y25" departLane="free" departSpeed="max"/>
    <trip id="hour_17_2688" depart="61230.10" from="185260338" to="307024526" fromTaz="origin-X20Y25" toTaz="fringe-X23Y15" departLane="free" departSpeed="max"/>
    <trip id="hour_17_2718" depart="61230.18" from="24821181" to="290538999" fromTaz="origin-X4Y30" toTaz="destination-X19Y25" departLane="free" departSpeed="max"/>
    <trip id="hour_17_1848" depart="61230.21" from="974405301" to="185406398" fromTaz="grid-X4Y10" toTaz="fringe-X1Y22" departLane="free" departSpeed="max"/>
    <trip id="hour_17_78" depart="61230.86" from="164785142" to="452051334" fromTaz="fringe-X11Y4" toTaz="destination-X7Y1" departLane="free" departSpeed="max"/>
    <trip id="hour_17_2661" depart="61230.87" from="185260338" to="275056710" fromTaz="origin-X20Y25" toTaz="destination-X4Y30" departLane="free" departSpeed="max"/>
    <trip id="hour_17_497" depart="61230.89" from="326780459" to="171007703" fromTaz="fringe-X19Y22" toTaz="grid-X19Y7" departLane="free" departSpeed="max"/>
    <trip id="hour_17_1131" depart="61231.01" from="154716118" to="326772923" fromTaz="fringe-X7Y28" toTaz="grid-X23Y16" departLane="free" departSpeed="max"/>
    <trip id="hour_17_2604" depart="61231.13" from="185260338" to="275056710" fromTaz="origin-X20Y25" toTaz="destination-X4Y30" departLane="free" departSpeed="max"/>
    <trip id="hour_17_3251" depart="61231.29" from="452051337" to="479358807" fromTaz="origin-X7Y1" toTaz="fringe-X22Y14" departLane="free" departSpeed="max"/>
    <trip id="hour_17_542" depart="61231.44" from="-10666718" to="375714879" fromTaz="fringe-X19Y23" toTaz="fringe-X18Y26" departLane="free" departSpeed="max"/>
    <trip id="hour_17_238" depart="61231.69" from="237130850" to="143075776" fromTaz="fringe-X16Y26" toTaz="fringe-X20Y21" departLane="free" departSpeed="max"/>
    <trip id="hour_17_1763" depart="61231.73" from="1188704304" to="-375714879" fromTaz="grid-X24Y16" toTaz="fringe-X18Y26" departLane="free" departSpeed="max"/>
    <trip id="hour_17_1944" depart="61231.76" from="202156414" to="275056710" fromTaz="grid-X5Y28" toTaz="destination-X4Y30" departLane="free" departSpeed="max"/>
    <trip id="hour_17_1767" depart="61231.80" from="-207067942" to="452051334" fromTaz="grid-X2Y14" toTaz="destination-X7Y1" departLane="free" departSpeed="max"/>
    <trip id="hour_17_2633" depart="61231.88" from="185260338" to="275056710" fromTaz="origin-X20Y25" toTaz="destination-X4Y30" departLane="free" departSpeed="max"/>
    <trip id="hour_17_2773" depart="61232.76" from="24821181" to="290538999" fromTaz="origin-X4Y30" toTaz="destination-X19Y25" departLane="free" departSpeed="max"/>
    <trip id="hour_17_1975" depart="61232.93" from="128434790" to="275056710" fromTaz="grid-X6Y16" toTaz="destination-X4Y30" departLane="free" departSpeed="max"/>
    <trip id="hour_17_134" depart="61233.22" from="87194342" to="-11939535370" fromTaz="fringe-X11Y4" toTaz="grid-X1Y12" departLane="free" departSpeed="max"/>
    <trip id="hour_17_1225" depart="61233.34" from="11939525165" to="143075776" fromTaz="grid-X11Y25" toTaz="fringe-X20Y21" departLane="free" departSpeed="max"/>
    <trip id="hour_17_223" depart="61233.49" from="326594940" to="158347370" fromTaz="fringe-X16Y26" toTaz="fringe-X19Y10" departLane="free" departSpeed="max"/>
    <trip id="hour_17_981" depart="61233.50" from="-37850228" to="-11939524014" fromTaz="fringe-X7Y0" toTaz="grid-X11Y4" departLane="free" departSpeed="max"/>
    <trip id="hour_17_613" depart="61233.54" from="143075776" to="275056710" fromTaz="fringe-X20Y21" toTaz="destination-X4Y30" departLane="free" departSpeed="max"/>
    <trip id="hour_17_3247" depart="61233.68" from="452051337" to="-479358807" fromTaz="origin-X7Y1" toTaz="fringe-X22Y14" departLane="free" departSpeed="max"/>
    <trip id="hour_17_1817" depart="61233.79" from="-11939525729" to="275056710" fromTaz="grid-X3Y27" toTaz="destination-X4Y30" departLane="free" departSpeed="max"/>
    <trip id="hour_17_476" depart="61233.79" from="-326780459" to="8896380" fromTaz="fringe-X19Y22" toTaz="fringe-X23Y15" departLane="free" departSpeed="max"/>
    <trip id="hour_17_1237" depart="61234.84" from="734928999" to="275056710" fromTaz="grid-X11Y26" toTaz="destination-X4Y30" departLane="free" departSpeed="max"/>
    <trip id="hour_17_1778" depart="61234.90" from="674618166" to="275056710" fromTaz="grid-X2Y26" toTaz="destination-X4Y30" departLane="free" departSpeed="max"/>
    <trip id="hour_17_773" depart="61234.92" from="-479358807" to="8896380" fromTaz="fringe-X22Y14" toTaz="fringe-X23Y15" departLane="free" departSpeed="max"/>
    <trip id="hour_17_1593" depart="61235.00" from="-1009757382" to="52045883" fromTaz="grid-X21Y12" toTaz="fringe-X10Y1" departLane="free" departSpeed="max"/>
    <trip id="hour_17_1579" depart="61235.18" from="-158414578" to="452051334" fromTaz="grid-X21Y12" toTaz="destination-X7Y1" departLane="free" departSpeed="max"/>
    <trip id="hour_17_621" depart="61235.85" from="143075780" to="326594940" fromTaz="fringe-X20Y21" toTaz="fringe-X16Y26" departLane="free" departSpeed="max"/>
    <trip id="hour_17_22" depart="61235.86" from="-52045883" to="5058806" fromTaz="fringe-X10Y1" toTaz="fringe-X18Y9" departLane="free" departSpeed="max"/>
    <trip id="hour_17_2751" depart="61235.90" from="24821181" to="290538999" fromTaz="origin-X4Y30" toTaz="destination-X19Y25" departLane="free" departSpeed="max"/>
    <trip id="hour_17_320" depart="61236.08" from="150270059" to="63961527" fromTaz="fringe-X16Y26" toTaz="grid-X23Y14" departLane="free" departSpeed="max"/>
    <trip id="hour_17_670" depart="61236.13" from="12968189#1" to="5058806" fromTaz="fringe-X20Y7" toTaz="fringe-X18Y9" departLane="free" departSpeed="max"/>
    <trip id="hour_17_1178" depart="61236.35" from="11939537277" to="275056710" fromTaz="grid-X10Y24" toTaz="destination-X4Y30" departLane="free" departSpeed="max"/>
    <trip id="hour_17_750" depart="61236.64" from="479358807" to="158347370" fromTaz="fringe-X22Y14" toTaz="fringe-X19Y10" departLane="free" departSpeed="max"/>
    <trip id="hour_17_1721" depart="61237.17" from="-63961527" to="307024527" fromTaz="grid-X23Y14" toTaz="fringe-X23Y15" departLane="free" departSpeed="max"/>
    <trip id="hour_17_1305" depart="61237.22" from="182037602" to="452051334" fromTaz="grid-X16Y6" toTaz="destination-X7Y1" departLane="free" departSpeed="max"/>
    <trip id="hour_17_2141" depart="61237.22" from="-71890079" to="143075780" fromTaz="grid-X8Y2" toTaz="fringe-X20Y21" departLane="free" departSpeed="max"/>
    <trip id="hour_17_275" depart="61237.27" from="150270059" to="479358807" fromTaz="fringe-X16Y26" toTaz="fringe-X22Y14" departLane="free" departSpeed="max"/>
    <trip id="hour_17_1678" depart="61237.39" from="122715735" to="307023793" fromTaz="grid-X22Y12" toTaz="fringe-X23Y15" departLane="free" departSpeed="max"/>
    <trip id="hour_17_1914" depart="61237.67" from="11939545857" to="154716118" fromTaz="grid-X5Y22" toTaz="fringe-X7Y28" departLane="free" departSpeed="max"/>
    <trip id="hour_17_12" depart="61237.69" from="-52045883" to="452051334" fromTaz="fringe-X10Y1" toTaz="destination-X7Y1" departLane="free" departSpeed="max"/>
    <trip id="hour_17_1265" depart="61237.71" from="290456883" to="275056710" fromTaz="grid-X12Y26" toTaz="destination-X4Y30" departLane="free" departSpeed="max"/>
    <trip id="hour_17_2199" depart="61237.86" from="11939538796" to="11939538422" fromTaz="grid-X8Y2" toTaz="fringe-X5Y28" departLane="free" departSpeed="max"/>
    <trip id="hour_17_2754" depart="61237.87" from="24821181" to="290538999" fromTaz="origin-X4Y30" toTaz="destination-X19Y25" departLane="free" departSpeed="max"/>
    <trip id="hour_17_2819" depart="61237.96" from="24821181" to="290538999" fromTaz="origin-X4Y30" toTaz="destination-X19Y25" departLane="free" departSpeed="max"/>
    <trip id="hour_17_2038" depart="61237.97" from="71736668" to="158346347" fromTaz="grid-X7Y2" toTaz="fringe-X19Y10" departLane="free" departSpeed="max"/>
    <trip id="hour_17_1414" depart="61238.89" from="-11939538446" to="8896380" fromTaz="grid-X19Y9" toTaz="fringe-X23Y15" departLane="free" departSpeed="max"/>
    <trip id="hour_17_294" depart="61239.02" from="24711105" to="307023793" fromTaz="fringe-X16Y26" toTaz="fringe-X23Y15" departLane="free" departSpeed="max"/>
    <trip id="hour_17_206" depart="61239.30" from="11939526419" to="287201448" fromTaz="fringe-X16Y26" toTaz="fringe-X18Y9" departLane="free" departSpeed="max"/>
    <trip id="hour_17_3303" depart="61239.36" from="452051337" to="451704782" fromTaz="origin-X7Y1" toTaz="grid-X17Y6" departLane="free" departSpeed="max"/>
    <trip id="hour_17_1594" depart="61239.36" from="-158415224" to="87194347" fromTaz="grid-X21Y12" toTaz="fringe-X11Y4" departLane="free" departSpeed="max"/>
    <trip id="hour_17_262" depart="61239.43" from="24711105" to="-12968189#1" fromTaz="fringe-X16Y26" toTaz="fringe-X20Y7" departLane="free" departSpeed="max"/>
    <trip id="hour_17_3033" depart="61239.62" from="24821181" to="290538999" fromTaz="origin-X4Y30" toTaz="destination-X19Y25" departLane="free" departSpeed="max"/>
    <trip id="hour_17_2904" depart="61239.66" from="24821181" to="290538999" fromTaz="origin-X4Y30" toTaz="destination-X19Y25" departLane="free" departSpeed="max"/>
    <trip id="hour_17_188" depart="61239.70" from="150270059" to="452051334" fromTaz="fringe-X16Y26" toTaz="destination-X7Y1" departLane="free" departSpeed="max"/>
    <trip id="hour_17_3161" depart="61239.79" from="452051337" to="290538999" fromTaz="origin-X7Y1" toTaz="destination-X19Y25" departLane="free" departSpeed="max"/>
    <trip id="hour_17_2451" depart="61239.97" from="185260338" to="275056710" fromTaz="origin-X20Y25" toTaz="destination-X4Y30" departLane="free" departSpeed="max"/>
    <trip id="hour_17_1316" depart="61241.06" from="11939541121" to="87194347" fromTaz="grid-X16Y6" toTaz="fringe-X11Y4" departLane="free" departSpeed="max"/>
    <trip id="hour_17_42" depart="61241.55" from="52045883" to="37850228" fromTaz="fringe-X10Y1" toTaz="fringe-X7Y0" departLane="free" departSpeed="max"/>
    <trip id="hour_17_1166" depart="61241.66" from="-453135921" to="452051334" fromTaz="grid-X10Y2" toTaz="destination-X7Y1" departLane="free" departSpeed="max"/>
    <trip id="hour_17_1845" depart="61241.83" from="11939539921" to="958174516" fromTaz="grid-X3Y28" toTaz="fringe-X1Y23" departLane="free" departSpeed="max"/>
    <trip id="hour_17_1007" depart="61242.10" from="-326572945" to="275056710" fromTaz="fringe-X7Y28" toTaz="destination-X4Y30" departLane="free" departSpeed="max"/>
    <trip id="hour_17_71" depart="61242.16" from="87194347" to="452051334" fromTaz="fringe-X11Y4" toTaz="destination-X7Y1" departLane="free" departSpeed="max"/>
    <trip id="hour_17_2952" depart="61242.49" from="24821181" to="290538999" fromTaz="origin-X4Y30" toTaz="destination-X19Y25" departLane="free" departSpeed="max"/>
    <trip id="hour_17_1611" depart="61242.67" from="1073403974" to="158346014" fromTaz="grid-X21Y12" toTaz="fringe-X19Y10" departLane="free" departSpeed="max"/>
    <trip id="hour_17_3225" depart="61242.69" from="452051337" to="12968189#1" fromTaz="origin-X7Y1" toTaz="fringe-X20Y7" departLane="free" departSpeed="max"/>
    <trip id="hour_17_1311" depart="61243.74" from="11939528855" to="452051334" fromTaz="grid-X16Y6" toTaz="destination-X7Y1" departLane="free" departSpeed="max"/>
    <trip id="hour_17_2081" depart="61244.26" from="46650701" to="307024527" fromTaz="grid-X8Y1" toTaz="fringe-X23Y15" departLane="free" departSpeed="max"/>
    <trip id="hour_17_930" depart="61244.32" from="-40425140" to="-958174516" fromTaz="fringe-X4Y29" toTaz="fringe-X1Y23" departLane="free" departSpeed="max"/>
    <trip id="hour_17_1137" depart="61244.80" from="5213455" to="11939546741" fromTaz="fringe-X7Y28" toTaz="grid-X24Y16" departLane="free" departSpeed="max"/>
    <trip id="hour_17_1287" depart="61244.99" from="306167689" to="275056710" fromTaz="grid-X15Y18" toTaz="destination-X4Y30" departLane="free" departSpeed="max"/>
    <trip id="hour_17_2527" depart="61245.59" from="185260338" to="275056710" fromTaz="origin-X20Y25" toTaz="destination-X4Y30" departLane="free" departSpeed="max"/>
    <trip id="hour_17_2075" depart="61245.93" from="-11939547843" to="307023793" fromTaz="grid-X7Y23" toTaz="fringe-X23Y15" departLane="free" departSpeed="max"/>
    <trip id="hour_17_2280" depart="61246.26" from="71890079" to="121921459" fromTaz="grid-X8Y3" toTaz="fringe-X22Y11" departLane="free" departSpeed="max"/>
    <trip id="hour_17_1536" depart="61246.54" from="-331714238" to="7706026" fromTaz="grid-X21Y11" toTaz="fringe-X18Y9" departLane="free" departSpeed="max"/>
    <trip id="hour_17_2345" depart="61246.79" from="735174821" to="326572945" fromTaz="grid-X9Y24" toTaz="fringe-X7Y28" departLane="free" departSpeed="max"/>
    <trip id="hour_17_2749" depart="61246.82" from="24821181" to="290538999" fromTaz="origin-X4Y30" toTaz="destination-X19Y25" departLane="free" departSpeed="max"/>
    <trip id="hour_17_538" depart="61246.90" from="326780462" to="275056710" fromTaz="fringe-X19Y23" toTaz="destination-X4Y30" departLane="free" departSpeed="max"/>
    <trip id="hour_17_3109" depart="61247.23" from="24821181" to="-11939539679" fromTaz="origin-X4Y30" toTaz="grid-X10Y19" departLane="free" departSpeed="max"/>
    <trip id="hour_17_2647" depart="61247.65" from="185260338" to="275056710" fromTaz="origin-X20Y25" toTaz="destination-X4Y30" departLane="free" departSpeed="max"/>
    <trip id="hour_17_3060" depart="61247.65" from="24821181" to="452051334" fromTaz="origin-X4Y30" toTaz="destination-X7Y1" departLane="free" departSpeed="max"/>
    <trip id="hour_17_705" depart="61247.95" from="-12968189#1" to="176408936" fromTaz="fringe-X20Y7" toTaz="grid-X19Y8" departLane="free" departSpeed="max"/>