<?xml version="1.0" encoding="UTF-8"?>

<routes xmlns:xsi="http://www.w3.org/2001/XMLSchema-instance" xsi:noNamespaceSchemaLocation="http://sumo.dlr.de/xsd/routes_file.xsd">
    <trip id="hour_6_1943" depart="21600.19" from="185260338" to="275056710" fromTaz="origin-X20Y25" toTaz="destination-X4Y30" departLane="free" departSpeed="max"/>
    <trip id="hour_6_594" depart="21600.90" from="-121921459" to="57373256" fromTaz="fringe-X22Y11" toTaz="fringe-X18Y9" departLane="free" departSpeed="max"/>
    <trip id="hour_6_1375" depart="21601.02" from="-11939539920" to="275056710" fromTaz="grid-X3Y27" toTaz="destination-X4Y30" departLane="free" departSpeed="max"/>
    <trip id="hour_6_134" depart="21601.15" from="11939526419" to="452051334" fromTaz="fringe-X16Y26" toTaz="destination-X7Y1" departLane="free" departSpeed="max"/>
    <trip id="hour_6_2221" depart="21601.24" from="24821181" to="290538999" fromTaz="origin-X4Y30" toTaz="destination-X19Y25" departLane="free" departSpeed="max"/>
    <trip id="hour_6_709" depart="21603.08" from="307024527" to="452051334" fromTaz="fringe-X23Y15" toTaz="destination-X7Y1" departLane="free" departSpeed="max"/>
    <trip id="hour_6_74" depart="21603.84" from="164785142" to="-366950473" fromTaz="fringe-X11Y4" toTaz="grid-X5Y4" departLane="free" departSpeed="max"/>
    <trip id="hour_6_1468" depart="21604.33" from="-11939535984" to="275056710" fromTaz="grid-X5Y24" toTaz="destination-X4Y30" departLane="free" departSpeed="max"/>
    <trip id="hour_6_1303" depart="21604.55" from="11939527071" to="290538999" fromTaz="grid-X23Y16" toTaz="destination-X19Y25" departLane="free" departSpeed="max"/>
    <trip id="hour_6_1882" depart="21605.34" from="185260338" to="275056710" fromTaz="origin-X20Y25" toTaz="destination-X4Y30" departLane="free" departSpeed="max"/>
    <trip id="hour_6_2384" depart="21606.09" from="452051337" to="307023793" fromTaz="origin-X7Y1" toTaz="fringe-X23Y15" departLane="free" departSpeed="max"/>
    <trip id="hour_6_286" depart="21606.14" from="-326780459" to="-24793256" fromTaz="fringe-X19Y22" toTaz="fringe-X23Y16" departLane="free" departSpeed="max"/>
    <trip id="hour_6_1596" depart="21606.35" from="11939538796" to="5058806" fromTaz="grid-X8Y2" toTaz="fringe-X18Y9" departLane="free" departSpeed="max"/>
    <trip id="hour_6_60" depart="21606.36" from="164785142" to="37850228" fromTaz="fringe-X11Y4" toTaz="fringe-X7Y0" departLane="free" departSpeed="max"/>
    <trip id="hour_6_2266" depart="21606.88" from="24821181" to="-958174516" fromTaz="origin-X4Y30" toTaz="fringe-X1Y23" departLane="free" departSpeed="max"/>
    <trip id="hour_6_617" depart="21606.89" from="-121921459" to="11939526280" fromTaz="fringe-X22Y11" toTaz="grid-X18Y7" departLane="free" departSpeed="max"/>
    <trip id="hour_6_474" depart="21607.29" from="-143075780" to="290538999" fromTaz="fringe-X20Y21" toTaz="destination-X19Y25" departLane="free" departSpeed="max"/>
    <trip id="hour_6_42" depart="21607.38" from="87194342" to="4414008" fromTaz="fringe-X11Y4" toTaz="fringe-X19Y10" departLane="free" departSpeed="max"/>
    <trip id="hour_6_1912" depart="21607.55" from="185260338" to="275056710" fromTaz="origin-X20Y25" toTaz="destination-X4Y30" departLane="free" departSpeed="max"/>
    <trip id="hour_6_106" depart="21607.90" from="164785144" to="-11939538796" fromTaz="fringe-X11Y4" toTaz="grid-X9Y2" departLane="free" departSpeed="max"/>
    <trip id="hour_6_295" depart="21608.55" from="326780459" to="11939529381" fromTaz="fringe-X19Y22" toTaz="grid-X19Y9" departLane="free" departSpeed="max"/>
    <trip id="hour_6_1785" depart="21608.62" from="-11939530736" to="-958174516" fromTaz="grid-X9Y24" toTaz="fringe-X1Y23" departLane="free" departSpeed="max"/>
    <trip id="hour_6_478" depart="21608.91" from="143075776" to="290538999" fromTaz="fringe-X20Y21" toTaz="destination-X19Y25" departLane="free" departSpeed="max"/>
    <trip id="hour_6_1583" depart="21609.34" from="-71736668" to="452051334" fromTaz="grid-X8Y2" toTaz="destination-X7Y1" departLane="free" departSpeed="max"/>
    <trip id="hour_6_1786" depart="21609.42" from="11939531318" to="-958174516" fromTaz="grid-X9Y24" toTaz="fringe-X1Y23" departLane="free" departSpeed="max"/>
    <trip id="hour_6_383" depart="21611.05" from="237582244" to="11939529258" fromTaz="fringe-X1Y12" toTaz="grid-X5Y14" departLane="free" departSpeed="max"/>
    <trip id="hour_6_220" depart="21611.12" from="7706026" to="4414008" fromTaz="fringe-X18Y9" toTaz="fringe-X19Y10" departLane="free" departSpeed="max"/>
    <trip id="hour_6_2357" depart="21611.33" from="452051337" to="12968189#1" fromTaz="origin-X7Y1" toTaz="fringe-X20Y7" departLane="free" departSpeed="max"/>
    <trip id="hour_6_1725" depart="21611.45" from="71890080" to="-121921459" fromTaz="grid-X8Y3" toTaz="fringe-X22Y11" departLane="free" departSpeed="max"/>
    <trip id="hour_6_1239" depart="21611.98" from="-4814762" to="452051334" fromTaz="grid-X22Y12" toTaz="destination-X7Y1" departLane="free" departSpeed="max"/>
    <trip id="hour_6_2371" depart="21612.48" from="452051337" to="121921459" fromTaz="origin-X7Y1" toTaz="fringe-X22Y11" departLane="free" departSpeed="max"/>
    <trip id="hour_6_120" depart="21612.90" from="326594940" to="290538999" fromTaz="fringe-X16Y26" toTaz="destination-X19Y25" departLane="free" departSpeed="max"/>
    <trip id="hour_6_460" depart="21612.98" from="143075780" to="290538999" fromTaz="fringe-X20Y21" toTaz="destination-X19Y25" departLane="free" departSpeed="max"/>
    <trip id="hour_6_150" depart="21613.05" from="11939526419" to="4414008" fromTaz="fringe-X16Y26" toTaz="fringe-X19Y10" departLane="free" departSpeed="max"/>
    <trip id="hour_6_131" depart="21613.17" from="24711107" to="452051334" fromTaz="fringe-X16Y26" toTaz="destination-X7Y1" departLane="free" departSpeed="max"/>
    <trip id="hour_6_1660" depart="21613.23" from="11939538796" to="-134105523" fromTaz="grid-X8Y2" toTaz="fringe-X24Y16" departLane="free" departSpeed="max"/>
    <trip id="hour_6_1579" depart="21613.26" from="71736662" to="275056710" fromTaz="grid-X8Y2" toTaz="destination-X4Y30" departLane="free" departSpeed="max"/>
    <trip id="hour_6_300" depart="21613.41" from="326780459" to="133951162" fromTaz="fringe-X19Y22" toTaz="grid-X21Y11" departLane="free" departSpeed="max"/>
    <trip id="hour_6_1458" depart="21613.78" from="-928911554" to="5213455" fromTaz="grid-X5Y20" toTaz="fringe-X7Y28" departLane="free" departSpeed="max"/>
    <trip id="hour_6_1368" depart="21614.07" from="-11939543231" to="275056710" fromTaz="grid-X3Y26" toTaz="destination-X4Y30" departLane="free" departSpeed="max"/>
    <trip id="hour_6_975" depart="21614.59" from="154716118" to="11939549865" fromTaz="fringe-X7Y28" toTaz="grid-X9Y21" departLane="free" departSpeed="max"/>
    <trip id="hour_6_1384" depart="21615.11" from="-11939550493" to="275056710" fromTaz="grid-X3Y27" toTaz="destination-X4Y30" departLane="free" departSpeed="max"/>
    <trip id="hour_6_727" depart="21615.70" from="24793256" to="-375714879" fromTaz="fringe-X23Y16" toTaz="fringe-X18Y26" departLane="free" departSpeed="max"/>
    <trip id="hour_6_929" depart="21615.75" from="929240359" to="-11939532269" fromTaz="fringe-X7Y28" toTaz="grid-X10Y25" departLane="free" departSpeed="max"/>
    <trip id="hour_6_2270" depart="21615.90" from="24821181" to="-958174516" fromTaz="origin-X4Y30" toTaz="fringe-X1Y23" departLane="free" departSpeed="max"/>
    <trip id="hour_6_1175" depart="21616.08" from="-11939544486" to="-121921459" fromTaz="grid-X18Y7" toTaz="fringe-X22Y11" departLane="free" departSpeed="max"/>
    <trip id="hour_6_2051" depart="21616.72" from="24821181" to="290538999" fromTaz="origin-X4Y30" toTaz="destination-X19Y25" departLane="free" departSpeed="max"/>
    <trip id="hour_6_500" depart="21617.15" from="-143075780" to="275056710" fromTaz="fringe-X20Y21" toTaz="destination-X4Y30" departLane="free" departSpeed="max"/>
    <trip id="hour_6_95" depart="21617.50" from="87194342" to="-11939534361" fromTaz="fringe-X11Y4" toTaz="grid-X7Y2" departLane="free" departSpeed="max"/>
    <trip id="hour_6_426" depart="21617.68" from="958174516" to="275056710" fromTaz="fringe-X1Y23" toTaz="destination-X4Y30" departLane="free" departSpeed="max"/>
    <trip id="hour_6_2047" depart="21617.91" from="24821181" to="290538999" fromTaz="origin-X4Y30" toTaz="destination-X19Y25" departLane="free" departSpeed="max"/>
    <trip id="hour_6_27" depart="21618.13" from="164785142" to="452051334" fromTaz="fringe-X11Y4" toTaz="destination-X7Y1" departLane="free" departSpeed="max"/>
    <trip id="hour_6_663" depart="21618.97" from="-479358807" to="452051334" fromTaz="fringe-X22Y14" toTaz="destination-X7Y1" departLane="free" departSpeed="max"/>
    <trip id="hour_6_995" depart="21619.64" from="-11939545162" to="275056710" fromTaz="grid-X10Y21" toTaz="destination-X4Y30" departLane="free" departSpeed="max"/>
    <trip id="hour_6_2244" depart="21619.73" from="24821181" to="290538999" fromTaz="origin-X4Y30" toTaz="destination-X19Y25" departLane="free" departSpeed="max"/>
    <trip id="hour_6_428" depart="21619.74" from="958174516" to="275056710" fromTaz="fringe-X1Y23" toTaz="destination-X4Y30" departLane="free" departSpeed="max"/>
    <trip id="hour_6_2189" depart="21619.83" from="24821181" to="290538999" fromTaz="origin-X4Y30" toTaz="destination-X19Y25" departLane="free" departSpeed="max"/>
    <trip id="hour_6_1818" depart="21620.09" from="185260338" to="275056710" fromTaz="origin-X20Y25" toTaz="destination-X4Y30" departLane="free" departSpeed="max"/>
    <trip id="hour_6_2098" depart="21620.25" from="24821181" to="290538999" fromTaz="origin-X4Y30" toTaz="destination-X19Y25" departLane="free" departSpeed="max"/>
    <trip id="hour_6_2216" depart="21620.36" from="24821181" to="290538999" fromTaz="origin-X4Y30" toTaz="destination-X19Y25" departLane="free" departSpeed="max"/>
    <trip id="hour_6_1784" depart="21621.20" from="-735174816" to="275056710" fromTaz="grid-X9Y24" toTaz="destination-X4Y30" departLane="free" departSpeed="max"/>
    <trip id="hour_6_1793" depart="21621.26" from="185260338" to="275056710" fromTaz="origin-X20Y25" toTaz="destination-X4Y30" departLane="free" departSpeed="max"/>
    <trip id="hour_6_952" depart="21622.28" from="326572945" to="346397315" fromTaz="fringe-X7Y28" toTaz="grid-X17Y7" departLane="free" departSpeed="max"/>
    <trip id="hour_6_1864" depart="21622.64" from="185260338" to="275056710" fromTaz="origin-X20Y25" toTaz="destination-X4Y30" departLane="free" departSpeed="max"/>
    <trip id="hour_6_353" depart="21623.05" from="-10666718" to="375714879" fromTaz="fringe-X19Y23" toTaz="fringe-X18Y26" departLane="free" departSpeed="max"/>
    <trip id="hour_6_724" depart="21623.51" from="24793256" to="452051334" fromTaz="fringe-X23Y16" toTaz="destination-X7Y1" departLane="free" departSpeed="max"/>
    <trip id="hour_6_572" depart="21623.70" from="12968189#1" to="158347370" fromTaz="fringe-X20Y7" toTaz="fringe-X19Y10" departLane="free" departSpeed="max"/>
    <trip id="hour_6_999" depart="21623.89" from="-1081322051" to="275056710" fromTaz="grid-X10Y24" toTaz="destination-X4Y30" departLane="free" departSpeed="max"/>
    <trip id="hour_6_1437" depart="21624.00" from="-11939528704#1" to="275056710" fromTaz="grid-X4Y28" toTaz="destination-X4Y30" departLane="free" departSpeed="max"/>
    <trip id="hour_6_1016" depart="21624.17" from="-11939532464" to="275056710" fromTaz="grid-X10Y25" toTaz="destination-X4Y30" departLane="free" departSpeed="max"/>
    <trip id="hour_6_832" depart="21624.58" from="40425140" to="275056710" fromTaz="fringe-X4Y29" toTaz="destination-X4Y30" departLane="free" departSpeed="max"/>
    <trip id="hour_6_1483" depart="21624.89" from="32018083" to="275056710" fromTaz="grid-X5Y27" toTaz="destination-X4Y30" departLane="free" departSpeed="max"/>
    <trip id="hour_6_557" depart="21624.98" from="-143075776" to="4397733" fromTaz="fringe-X20Y21" toTaz="grid-X21Y12" departLane="free" departSpeed="max"/>
    <trip id="hour_6_1525" depart="21625.86" from="-11939536348" to="326572945" fromTaz="grid-X6Y18" toTaz="fringe-X7Y28" departLane="free" departSpeed="max"/>
    <trip id="hour_6_753" depart="21626.00" from="-24793256" to="-454709412" fromTaz="fringe-X23Y16" toTaz="grid-X22Y11" departLane="free" departSpeed="max"/>
    <trip id="hour_6_914" depart="21626.02" from="5213455" to="654765962" fromTaz="fringe-X7Y28" toTaz="fringe-X16Y17" departLane="free" departSpeed="max"/>
    <trip id="hour_6_287" depart="21626.51" from="326780461" to="-134105523" fromTaz="fringe-X19Y22" toTaz="fringe-X24Y16" departLane="free" departSpeed="max"/>
    <trip id="hour_6_1347" depart="21628.47" from="-674618166" to="275056710" fromTaz="grid-X2Y25" toTaz="destination-X4Y30" departLane="free" departSpeed="max"/>
    <trip id="hour_6_1409" depart="21628.53" from="11939533039" to="275056710" fromTaz="grid-X4Y14" toTaz="destination-X4Y30" departLane="free" departSpeed="max"/>
    <trip id="hour_6_1136" depart="21628.78" from="-11939528855" to="307023793" fromTaz="grid-X16Y6" toTaz="fringe-X23Y15" departLane="free" departSpeed="max"/>
    <trip id="hour_6_2060" depart="21629.78" from="24821181" to="290538999" fromTaz="origin-X4Y30" toTaz="destination-X19Y25" departLane="free" departSpeed="max"/>
    <trip id="hour_6_2205" depart="21629.99" from="24821181" to="290538999" fromTaz="origin-X4Y30" toTaz="destination-X19Y25" departLane="free" departSpeed="max"/>
    <trip id="hour_6_1709" depart="21630.26" from="-987011928" to="57373256" fromTaz="grid-X8Y3" toTaz="fringe-X18Y9" departLane="free" departSpeed="max"/>
    <trip id="hour_6_75" depart="21630.86" from="164785142" to="68532147" fromTaz="fringe-X11Y4" toTaz="grid-X5Y4" departLane="free" departSpeed="max"/>
    <trip id="hour_6_2163" depart="21630.97" from="24821181" to="290538999" fromTaz="origin-X4Y30" toTaz="destination-X19Y25" departLane="free" departSpeed="max"/>
    <trip id="hour_6_511" depart="21631.44" from="143075776" to="237130850" fromTaz="fringe-X20Y21" toTaz="fringe-X16Y26" departLane="free" departSpeed="max"/>
    <trip id="hour_6_1668" depart="21631.73" from="11939532048" to="929240359" fromTaz="grid-X8Y2" toTaz="fringe-X7Y28" departLane="free" departSpeed="max"/>
    <trip id="hour_6_1867" depart="21631.76" from="185260338" to="275056710" fromTaz="origin-X20Y25" toTaz="destination-X4Y30" departLane="free" departSpeed="max"/>
    <trip id="hour_6_1673" depart="21631.80" from="-155263085" to="326572945" fromTaz="grid-X8Y23" toTaz="fringe-X7Y28" departLane="free" departSpeed="max"/>
    <trip id="hour_6_902" depart="21632.26" from="326572941" to="275056710" fromTaz="fringe-X7Y28" toTaz="destination-X4Y30" departLane="free" departSpeed="max"/>
    <trip id="hour_6_2026" depart="21632.95" from="24821181" to="290538999" fromTaz="origin-X4Y30" toTaz="destination-X19Y25" departLane="free" departSpeed="max"/>
    <trip id="hour_6_126" depart="21633.22" from="237130850" to="275056710" fromTaz="fringe-X16Y26" toTaz="destination-X4Y30" departLane="free" departSpeed="max"/>
    <trip id="hour_6_2072" depart="21633.27" from="24821181" to="290538999" fromTaz="origin-X4Y30" toTaz="destination-X19Y25" departLane="free" departSpeed="max"/>
    <trip id="hour_6_940" depart="21633.50" from="154716118" to="-11939549118" fromTaz="fringe-X7Y28" toTaz="grid-X12Y26" departLane="free" departSpeed="max"/>
    <trip id="hour_6_442" depart="21633.79" from="-958174516" to="-674618166" fromTaz="fringe-X1Y23" toTaz="grid-X2Y25" departLane="free" departSpeed="max"/>
    <trip id="hour_6_993" depart="21634.27" from="11939530858" to="275056710" fromTaz="grid-X10Y21" toTaz="destination-X4Y30" departLane="free" departSpeed="max"/>
    <trip id="hour_6_1705" depart="21635.22" from="71890080" to="375714879" fromTaz="grid-X8Y3" toTaz="fringe-X18Y26" departLane="free" departSpeed="max"/>
    <trip id="hour_6_1108" depart="21635.56" from="-229335379" to="275056710" fromTaz="grid-X14Y18" toTaz="destination-X4Y30" departLane="free" departSpeed="max"/>
    <trip id="hour_6_21" depart="21635.86" from="164785142" to="452051334" fromTaz="fringe-X11Y4" toTaz="destination-X7Y1" departLane="free" departSpeed="max"/>
    <trip id="hour_6_304" depart="21636.08" from="10666718" to="290538999" fromTaz="fringe-X19Y23" toTaz="destination-X19Y25" departLane="free" departSpeed="max"/>
    <trip id="hour_6_1123" depart="21636.35" from="11939548588" to="275056710" fromTaz="grid-X16Y17" toTaz="destination-X4Y30" departLane="free" departSpeed="max"/>
    <trip id="hour_6_234" depart="21636.69" from="287201448" to="11939543535" fromTaz="fringe-X18Y9" toTaz="grid-X21Y12" departLane="free" departSpeed="max"/>
    <trip id="hour_6_2176" depart="21637.00" from="24821181" to="290538999" fromTaz="origin-X4Y30" toTaz="destination-X19Y25" departLane="free" departSpeed="max"/>
    <trip id="hour_6_277" depart="21637.11" from="-326780459" to="307024527" fromTaz="fringe-X19Y22" toTaz="fringe-X23Y15" departLane="free" departSpeed="max"/>
    <trip id="hour_6_184" depart="21637.12" from="-375714879" to="290538999" fromTaz="fringe-X18Y26" toTaz="destination-X19Y25" departLane="free" departSpeed="max"/>
    <trip id="hour_6_1623" depart="21637.17" from="-71890079" to="12968189#1" fromTaz="grid-X8Y2" toTaz="fringe-X20Y7" departLane="free" departSpeed="max"/>
    <trip id="hour_6_1578" depart="21637.39" from="11939530892" to="290538999" fromTaz="grid-X8Y2" toTaz="destination-X19Y25" departLane="free" departSpeed="max"/>
    <trip id="hour_6_1892" depart="21638.94" from="185260338" to="275056710" fromTaz="origin-X20Y25" toTaz="destination-X4Y30" departLane="free" departSpeed="max"/>
    <trip id="hour_6_760" depart="21638.97" from="134105523" to="275056710" fromTaz="fringe-X24Y16" toTaz="destination-X4Y30" departLane="free" departSpeed="max"/>
    <trip id="hour_6_1510" depart="21639.36" from="-734247285" to="958174516" fromTaz="grid-X5Y28" toTaz="fringe-X1Y23" departLane="free" departSpeed="max"/>
    <trip id="hour_6_2435" depart="21639.63" from="452051337" to="11939549023" fromTaz="origin-X7Y1" toTaz="grid-X24Y14" departLane="free" departSpeed="max"/>
    <trip id="hour_6_62" depart="21640.24" from="164785144" to="-168138716" fromTaz="fringe-X11Y4" toTaz="grid-X10Y1" departLane="free" departSpeed="max"/>
    <trip id="hour_6_536" depart="21640.26" from="-143075776" to="-375714879" fromTaz="fringe-X20Y21" toTaz="fringe-X18Y26" departLane="free" departSpeed="max"/>
    <trip id="hour_6_808" depart="21640.97" from="40425140" to="275056710" fromTaz="fringe-X4Y29" toTaz="destination-X4Y30" departLane="free" departSpeed="max"/>
    <trip id="hour_6_1258" depart="21641.06" from="120860558" to="-375714879" fromTaz="grid-X22Y13" toTaz="fringe-X18Y26" departLane="free" departSpeed="max"/>
    <trip id="hour_6_329" depart="21641.59" from="-10666718" to="275056710" fromTaz="fringe-X19Y23" toTaz="destination-X4Y30" departLane="free" departSpeed="max"/>
    <trip id="hour_6_1753" depart="21641.83" from="11939525667" to="275056710" fromTaz="grid-X9Y21" toTaz="destination-X4Y30" departLane="free" departSpeed="max"/>
    <trip id="hour_6_961" depart="21642.10" from="-326572945" to="11939538898" fromTaz="fringe-X7Y28" toTaz="grid-X20Y10" departLane="free" departSpeed="max"/>
    <trip id="hour_6_601" depart="21642.34" from="121921459" to="-479358807" fromTaz="fringe-X22Y11" toTaz="fringe-X22Y14" departLane="free" departSpeed="max"/>
    <trip id="hour_6_561" depart="21642.57" from="12968189#1" to="452051334" fromTaz="fringe-X20Y7" toTaz="destination-X7Y1" departLane="free" departSpeed="max"/>
    <trip id="hour_6_1045" depart="21643.33" from="1131051093" to="275056710" fromTaz="grid-X11Y25" toTaz="destination-X4Y30" departLane="free" departSpeed="max"/>
    <trip id="hour_6_1087" depart="21644.80" from="-290456883" to="275056710" fromTaz="grid-X12Y26" toTaz="destination-X4Y30" departLane="free" departSpeed="max"/>
    <trip id="hour_6_1230" depart="21644.99" from="383466184" to="479358807" fromTaz="grid-X22Y11" toTaz="fringe-X22Y14" departLane="free" departSpeed="max"/>
    <trip id="hour_6_403" depart="21645.53" from="-958174516" to="275056710" fromTaz="fringe-X1Y23" toTaz="destination-X4Y30" departLane="free" departSpeed="max"/>
    <trip id="hour_6_1570" depart="21646.05" from="-11939539121" to="5213455" fromTaz="grid-X7Y23" toTaz="fringe-X7Y28" departLane="free" departSpeed="max"/>
    <trip id="hour_6_2235" depart="21646.26" from="24821181" to="290538999" fromTaz="origin-X4Y30" toTaz="destination-X19Y25" departLane="free" departSpeed="max"/>
    <trip id="hour_6_1459" depart="21646.54" from="11939524182" to="275056710" fromTaz="grid-X5Y21" toTaz="destination-X4Y30" departLane="free" departSpeed="max"/>
    <trip id="hour_6_644" depart="21646.54" from="121921459" to="105136082" fromTaz="fringe-X22Y11" toTaz="grid-X5Y8" departLane="free" departSpeed="max"/>
    <trip id="hour_6_1651" depart="21646.55" from="316414576" to="-24793256" fromTaz="grid-X8Y2" toTaz="fringe-X23Y16" departLane="free" departSpeed="max"/>
    <trip id="hour_6_1317" depart="21647.53" from="-11939527071" to="158347370" fromTaz="grid-X23Y16" toTaz="fringe-X19Y10" departLane="free" departSpeed="max"/>
    <trip id="hour_6_630" depart="21648.07" from="-121921459" to="-695002987" fromTaz="fringe-X22Y11" toTaz="grid-X20Y7" departLane="free" departSpeed="max"/>
    <trip id="hour_6_346" depart="21648.32" from="10666718" to="150270054" fromTaz="fringe-X19Y23" toTaz="fringe-X16Y26" departLane="free" departSpeed="max"/>
    <trip id="hour_6_1271" depart="21648.50" from="11939525710" to="275056710" fromTaz="grid-X22Y14" toTaz="destination-X4Y30" departLane="free" departSpeed="max"/>
    <trip id="hour_6_2172" depart="21648.60" from="24821181" to="290538999" fromTaz="origin-X4Y30" toTaz="destination-X19Y25" departLane="free" departSpeed="max"/>
    <trip id="hour_6_607" depart="21648.71" from="121921459" to="37850228" fromTaz="fringe-X22Y11" toTaz="fringe-X7Y0" departLane="free" departSpeed="max"/>
    <trip id="hour_6_2105" depart="21649.06" from="24821181" to="290538999" fromTaz="origin-X4Y30" toTaz="destination-X19Y25" departLane="free" departSpeed="max"/>
    <trip id="hour_6_1781" depart="21649.85" from="-735174821" to="275056710" fromTaz="grid-X9Y24" toTaz="destination-X4Y30" departLane="free" departSpeed="max"/>
    <trip id="hour_6_1767" depart="21649.93" from="110826578" to="275056710" fromTaz="grid-X9Y23" toTaz="destination-X4Y30" departLane="free" departSpeed="max"/>
    <trip id="hour_6_913" depart="21649.96" from="326572945" to="654765962" fromTaz="fringe-X7Y28" toTaz="fringe-X16Y17" departLane="free" departSpeed="max"/>
    <trip id="hour_6_1220" depart="21650.13" from="1009757382" to="452051334" fromTaz="grid-X21Y12" toTaz="destination-X7Y1" departLane="free" departSpeed="max"/>
    <trip id="hour_6_1595" depart="21650.24" from="11939532048" to="57373256" fromTaz="grid-X8Y2" toTaz="fringe-X18Y9" departLane="free" departSpeed="max"/>
    <trip id="hour_6_854" depart="21650.79" from="-40425140" to="-11939536390" fromTaz="fringe-X4Y29" toTaz="grid-X16Y17" departLane="free" departSpeed="max"/>
    <trip id="hour_6_2317" depart="21651.15" from="452051337" to="290538999" fromTaz="origin-X7Y1" toTaz="destination-X19Y25" departLane="free" departSpeed="max"/>
    <trip id="hour_6_1012" depart="21651.17" from="11939532464" to="275056710" fromTaz="grid-X10Y25" toTaz="destination-X4Y30" departLane="free" departSpeed="max"/>
    <trip id="hour_6_558" depart="21651.19" from="-12968189#1" to="452051334" fromTaz="fringe-X20Y7" toTaz="destination-X7Y1" departLane="free" departSpeed="max"/>
    <trip id="hour_6_1302" depart="21651.68" from="11939542423" to="37850228" fromTaz="grid-X23Y14" toTaz="fringe-X7Y0" departLane="free" departSpeed="max"/>
    <trip id="hour_6_588" depart="21652.35" from="121921459" to="452051334" fromTaz="fringe-X22Y11" toTaz="destination-X7Y1" departLane="free" departSpeed="max"/>
    <trip id="hour_6_11" depart="21652.36" from="-52045883" to="-37850228" fromTaz="fringe-X10Y1" toTaz="fringe-X7Y0" departLane="free" departSpeed="max"/>
    <trip id="hour_6_270" depart="21652.47" from="-326780459" to="-479358807" fromTaz="fringe-X19Y22" toTaz="fringe-X22Y14" departLane="free" departSpeed="max"/>
    <trip id="hour_6_1148" depart="21652.49" from="-451704783" to="158346014" fromTaz="grid-X17Y6" toTaz="fringe-X19Y10" departLane="free" departSpeed="max"/>
    <trip id="hour_6_1189" depart="21652.75" from="264652041" to="158346347" fromTaz="grid-X19Y8" toTaz="fringe-X19Y10" departLane="free" departSpeed="max"/>
    <trip id="hour_6_1461" depart="21652.89" from="11939548886" to="326572945" fromTaz="grid-X5Y21" toTaz="fringe-X7Y28" departLane="free" departSpeed="max"/>
    <trip id="hour_6_980" depart="21652.98" from="929240359" to="84035861" fromTaz="fringe-X7Y28" toTaz="grid-X9Y24" departLane="free" departSpeed="max"/>
    <trip id="hour_6_347" depart="21653.09" from="-10666718" to="11939526419" fromTaz="fringe-X19Y23" toTaz="fringe-X16Y26" departLane="free" departSpeed="max"/>
    <trip id="hour_6_166" depart="21653.48" from="24711107" to="121921459" fromTaz="fringe-X16Y26" toTaz="fringe-X22Y11" departLane="free" departSpeed="max"/>
    <trip id="hour_6_527" depart="21653.69" from="143075780" to="-375714879" fromTaz="fringe-X20Y21" toTaz="fringe-X18Y26" departLane="free" departSpeed="max"/>
    <trip id="hour_6_1450" depart="21653.94" from="11939530132" to="-326572945" fromTaz="grid-X5Y14" toTaz="fringe-X7Y28" departLane="free" departSpeed="max"/>
    <trip id="hour_6_479" depart="21654.47" from="-143075776" to="290538999" fromTaz="fringe-X20Y21" toTaz="destination-X19Y25" departLane="free" departSpeed="max"/>
    <trip id="hour_6_815" depart="21655.09" from="40425140" to="275056710" fromTaz="fringe-X4Y29" toTaz="destination-X4Y30" departLane="free" departSpeed="max"/>
    <trip id="hour_6_1679" depart="21655.13" from="11939544848" to="290538999" fromTaz="grid-X8Y3" toTaz="destination-X19Y25" departLane="free" departSpeed="max"/>
    <trip id="hour_6_1970" depart="21655.31" from="185260338" to="452051334" fromTaz="origin-X20Y25" toTaz="destination-X7Y1" departLane="free" departSpeed="max"/>
    <trip id="hour_6_1154" depart="21655.39" from="165378136" to="452051334" fromTaz="grid-X17Y7" toTaz="destination-X7Y1" departLane="free" departSpeed="max"/>
    <trip id="hour_6_1167" depart="21655.68" from="11939547876" to="452051334" fromTaz="grid-X18Y7" toTaz="destination-X7Y1" departLane="free" departSpeed="max"/>
    <trip id="hour_6_1536" depart="21656.20" from="-930774591" to="275056710" fromTaz="grid-X6Y23" toTaz="destination-X4Y30" departLane="free" departSpeed="max"/>
    <trip id="hour_6_731" depart="21656.46" from="24793256" to="375714879" fromTaz="fringe-X23Y16" toTaz="fringe-X18Y26" departLane="free" departSpeed="max"/>
    <trip id="hour_6_556" depart="21656.51" from="-143075776" to="-11939550363" fromTaz="fringe-X20Y21" toTaz="grid-X20Y9" departLane="free" departSpeed="max"/>
    <trip id="hour_6_841" depart="21657.01" from="40425140" to="-958174516" fromTaz="fringe-X4Y29" toTaz="fringe-X1Y23" departLane="free" departSpeed="max"/>
    <trip id="hour_6_2119" depart="21657.29" from="24821181" to="290538999" fromTaz="origin-X4Y30" toTaz="destination-X19Y25" departLane="free" departSpeed="max"/>
    <trip id="hour_6_1100" depart="21657.47" from="-11939537506" to="275056710" fromTaz="grid-X13Y19" toTaz="destination-X4Y30" departLane="free" departSpeed="max"/>
    <trip id="hour_6_657" depart="21658.02" from="121921459" to="71736663" fromTaz="fringe-X22Y11" toTaz="grid-X8Y2" departLane="free" departSpeed="max"/>
    <trip id="hour_6_869" depart="21659.00" from="5213455" to="275056710" fromTaz="fringe-X7Y28" toTaz="destination-X4Y30" departLane="free" departSpeed="max"/>
    <trip id="hour_6_1043" depart="21659.86" from="-11939525165" to="275056710" fromTaz="grid-X11Y25" toTaz="destination-X4Y30" departLane="free" departSpeed="max"/>
    <trip id="hour_6_836" depart="21660.19" from="40425140" to="-654765962" fromTaz="fringe-X4Y29" toTaz="fringe-X16Y17" departLane="free" departSpeed="max"/>
    <trip id="hour_6_1508" depart="21660.85" from="-734247285" to="958174516" fromTaz="grid-X5Y28" toTaz="fringe-X1Y23" departLane="free" departSpeed="max"/>
    <trip id="hour_6_2425" depart="21661.49" from="452051337" to="1009757382" fromTaz="origin-X7Y1" toTaz="grid-X21Y12" departLane="free" departSpeed="max"/>
    <trip id="hour_6_515" depart="21661.86" from="-143075780" to="150270059" fromTaz="fringe-X20Y21" toTaz="fringe-X16Y26" departLane="free" departSpeed="max"/>
    <trip id="hour_6_1191" depart="21662.09" from="-11939531188" to="158346014" fromTaz="grid-X19Y8" toTaz="fringe-X19Y10" departLane="free" departSpeed="max"/>
    <trip id="hour_6_1403" depart="21662.19" from="-11939545746" to="275056710" fromTaz="grid-X3Y28" toTaz="destination-X4Y30" departLane="free" departSpeed="max"/>
    <trip id="hour_6_726" depart="21662.23" from="24793256" to="452051334" fromTaz="fringe-X23Y16" toTaz="destination-X7Y1" departLane="free" departSpeed="max"/>
    <trip id="hour_6_835" depart="21662.61" from="-40425140" to="-654765962" fromTaz="fringe-X4Y29" toTaz="fringe-X16Y17" departLane="free" departSpeed="max"/>
    <trip id="hour_6_1017" depart="21662.93" from="11939544126" to="275056710" fromTaz="grid-X10Y25" toTaz="destination-X4Y30" departLane="free" departSpeed="max"/>
    <trip id="hour_6_56" depart="21663.58" from="87194347" to="-37850228" fromTaz="fringe-X11Y4" toTaz="fringe-X7Y0" departLane="free" departSpeed="max"/>
    <trip id="hour_6_2136" depart="21663.81" from="24821181" to="290538999" fromTaz="origin-X4Y30" toTaz="destination-X19Y25" departLane="free" departSpeed="max"/>
    <trip id="hour_6_2090" depart="21663.99" from="24821181" to="290538999" fromTaz="origin-X4Y30" toTaz="destination-X19Y25" departLane="free" departSpeed="max"/>